version 2
run _MP2P_Static_BLACKHOLE_36-0-20260522-13:24:01-94324
attr configname _MP2P_Static_BLACKHOLE_36
attr datetime 20260522-13:24:01
attr experiment _MP2P_Static_BLACKHOLE_36
attr inifile omnetpp_RPL_MP2P_36.ini
attr iterationvars ""
attr iterationvarsf ""
attr measurement ""
attr network RplNetwork36
attr processid 94324
attr repetition 0
attr replication #0
attr resultdir results
attr runnumber 0
attr seedset 0
param **.host[*].numApps 1
param **.host[*].app[0].typename "\"UdpBasicApp\""
param **.host[*].app[0].destPort 1000
param **.host[*].app[0].messageLength 56B
param **.host[*].app[0].sendInterval 55s
param **.host[*].app[0].startTime uniform(300s,400s)
param **.host[*].app[0].stopTime 3550s
param **.sink[*].numApps 1
param **.sink[*].app[0].typename "\"UdpSink\""
param **.sink[*].app[0].localPort 1000
param **.host[0..3].app[0].destAddresses "\"host[4]\""
param **.host[5..25].app[0].destAddresses "\"host[4]\""
param **.host[26..35].app[0].destAddresses "\"sink[0]\""
param **.host[4].numApps 0
param **.host[*].numApps 1
param **.host[*].app[0].typename "\"UdpBasicApp\""
param **.host[*].app[0].destAddresses "\"sink[0]\""
param **.host[*].app[0].destPort 1000
param **.host[*].app[0].messageLength 56B
param **.host[*].app[0].sendInterval 55s
param **.host[*].app[0].startTime uniform(0s,90s)
param **.sink[*].numApps 1
param **.sink[*].app[0].typename "\"UdpSink\""
param **.sink[*].app[0].localPort 1000
param **.host[*].app[0].recordStats true
param **.sink[*].app[0].recordStats true
param **.host[*].energyStorage.typename "\"IdealEpEnergyStorage\""
param **.host[*].energyStorage.nominalCapacity 1000J
param **.host[*].energyStorage.initialCapacity 1000J
param **.host[*].wlan[*].radio.energyConsumer.typename "\"StateBasedEpEnergyConsumer\""
param **.numNodes 36
param **.hasIpv6 true
param **.hasIpv4 false
param **.mtu 1500B
param **.neighbourDiscovery.raEnabled false
param **.neighbourDiscovery.addRandomDelays true
param **.neighbourDiscovery.skipDad true
param **.radioMedium.typename "\"Ieee802154NarrowbandDimensionalRadioMedium\""
param **.radio.typename "\"Ieee802154NarrowbandDimensionalRadio\""
param **.radioMedium.backgroundNoise.power -110dBm
param **.radioMedium.attenuation.typename "\"LogNormalShadowing\""
param **.radioMedium.attenuation.pathLossExponent 3.5
param **.radioMedium.attenuation.sigma 6.0
param **.wlan[*].typename "\"Ieee802154NarrowbandInterface\""
param **.wlan[*].mac.typename "\"Ieee802154Mac\""
param **.wlan[0].radio.transmitter.bitrate 250kbps
param **.wlan[0].radio.receiver.sensitivity -85dBm
param **.wlan[0].radio.transmitter.power 1mW
param **.sink[*].rpl.isRoot true
param **.sink[*].rpl.storing true
param **.rpl.numDaoRetransmitAttempts 10
param **.rpl.daoEnabled true
param **.rpl.poisoning false
param **.rpl.useBackupAsPreferred false
param **.rpl.networkProtocolModule "\"^.ipv6.ipv6\""
param **.rpl.routingTableModule "\"^.ipv6.routingTable\""
param **.rpl.drawConnectors true
param **.numSinks 1
param **.sensor[*].mobility.typename "\"StationaryMobility\""
param **.sink[*].mobility.typename "\"StationaryMobility\""
param **.mobility.constraintAreaMinX 0m
param **.mobility.constraintAreaMinY 0m
param **.mobility.constraintAreaMaxX 500m
param **.mobility.constraintAreaMaxY 500m
param *.sink[*].mobility.initialZ 0m
param *.host[*].mobility.typename "\"StationaryMobility\""
param *.host[*].mobility.initFromDisplayString false
param *.host[*].mobility.initialZ 0m
param *.sink[0].mobility.initialX 140m
param *.sink[0].mobility.initialY 120m
param *.host[0].mobility.initialX 40m
param *.host[0].mobility.initialY 0m
param *.host[1].mobility.initialX 80m
param *.host[1].mobility.initialY 0m
param *.host[2].mobility.initialX 120m
param *.host[2].mobility.initialY 0m
param *.host[3].mobility.initialX 160m
param *.host[3].mobility.initialY 0m
param *.host[4].mobility.initialX 200m
param *.host[4].mobility.initialY 0m
param *.host[5].mobility.initialX 240m
param *.host[5].mobility.initialY 0m
param *.host[6].mobility.initialX 40m
param *.host[6].mobility.initialY 40m
param *.host[7].mobility.initialX 80m
param *.host[7].mobility.initialY 40m
param *.host[8].mobility.initialX 120m
param *.host[8].mobility.initialY 40m
param *.host[9].mobility.initialX 160m
param *.host[9].mobility.initialY 40m
param *.host[10].mobility.initialX 200m
param *.host[10].mobility.initialY 40m
param *.host[11].mobility.initialX 240m
param *.host[11].mobility.initialY 40m
param *.host[12].mobility.initialX 40m
param *.host[12].mobility.initialY 80m
param *.host[13].mobility.initialX 80m
param *.host[13].mobility.initialY 80m
param *.host[14].mobility.initialX 120m
param *.host[14].mobility.initialY 80m
param *.host[15].mobility.initialX 160m
param *.host[15].mobility.initialY 80m
param *.host[16].mobility.initialX 200m
param *.host[16].mobility.initialY 80m
param *.host[17].mobility.initialX 240m
param *.host[17].mobility.initialY 80m
param *.host[18].mobility.initialX 40m
param *.host[18].mobility.initialY 120m
param *.host[19].mobility.initialX 80m
param *.host[19].mobility.initialY 120m
param *.host[21].mobility.initialX 160m
param *.host[21].mobility.initialY 120m
param *.host[22].mobility.initialX 200m
param *.host[22].mobility.initialY 120m
param *.host[23].mobility.initialX 240m
param *.host[23].mobility.initialY 120m
param *.host[24].mobility.initialX 40m
param *.host[24].mobility.initialY 160m
param *.host[25].mobility.initialX 80m
param *.host[25].mobility.initialY 160m
param *.host[26].mobility.initialX 120m
param *.host[26].mobility.initialY 160m
param *.host[27].mobility.initialX 160m
param *.host[27].mobility.initialY 160m
param *.host[28].mobility.initialX 200m
param *.host[28].mobility.initialY 160m
param *.host[29].mobility.initialX 240m
param *.host[29].mobility.initialY 160m
param *.host[30].mobility.initialX 40m
param *.host[30].mobility.initialY 200m
param *.host[31].mobility.initialX 80m
param *.host[31].mobility.initialY 200m
param *.host[32].mobility.initialX 120m
param *.host[32].mobility.initialY 200m
param *.host[33].mobility.initialX 160m
param *.host[33].mobility.initialY 200m
param *.host[34].mobility.initialX 200m
param *.host[34].mobility.initialY 200m
param *.host[35].mobility.initialX 240m
param *.host[35].mobility.initialY 200m
param **.host[*].numApps 1
param **.host[*].app[0].typename "\"UdpBasicApp\""
param **.host[*].app[0].destAddresses "\"sink[0]\""
param **.host[*].app[0].destPort 1000
param **.host[*].app[0].messageLength 56B
param **.host[*].app[0].sendInterval 55s
param **.host[*].app[0].startTime uniform(0s,90s)
param **.host[*].app[0].stopTime 3550s
param **.sink[*].numApps 1
param **.sink[*].app[0].typename "\"UdpSink\""
param **.sink[*].app[0].localPort 1000
param **.host[*].energyStorage.typename "\"IdealEpEnergyStorage\""
param **.host[*].energyStorage.nominalCapacity 1000J
param **.host[*].energyStorage.initialCapacity 1000J
param **.host[*].wlan[*].radio.energyConsumer.typename "\"StateBasedEpEnergyConsumer\""
param **.Attack[*].energyStorage.typename "\"IdealEpEnergyStorage\""
param **.Attack[*].energyStorage.nominalCapacity 1000J
param **.Attack[*].energyStorage.initialCapacity 1000J
param **.Attack[*].wlan[*].radio.energyConsumer.typename "\"StateBasedEpEnergyConsumer\""
param *.visualizer.dataLinkVisualizer[*].displayLinks true
param *.visualizer.physicalLinkVisualizer[*].displayLinks true
param *.visualizer.mediumVisualizer.displayCommunicationRanges true
param *.visualizer.networkRouteVisualizer.displayRoutes true
param *.visualizer.*.numDataLinkVisualizers 4
param *.visualizer.*.dataLinkVisualizer[*].displayLinks true
param *.visualizer.*.dataLinkVisualizer[*].activityLevel "\"peer\""
param *.visualizer.*.dataLinkVisualizer[0].packetFilter "\"UDP*\""
param *.visualizer.*.dataLinkVisualizer[0].*Color "\"blue\""
param *.visualizer.*.dataLinkVisualizer[1].packetFilter "\"DIO* or DIS* or DAO*\""
param *.visualizer.*.dataLinkVisualizer[1].*Color "\"green\""
param *.visualizer.*.dataLinkVisualizer[2].packetFilter "\"RERR* or ICMP*\""
param *.visualizer.*.dataLinkVisualizer[2].*Color "\"red\""
param *.visualizer.*.dataLinkVisualizer[3].packetFilter "\"UDP*\""
param *.visualizer.*.dataLinkVisualizer[3].*Color "\"orange\""
param **.app[*].packetSent:count.record true
param **.app[*].packetReceived:count.record true
param **.host[*].app[0].recordStats true
param **.sink[*].app[0].recordStats true
param **.endToEndDelay:vector.record true
param **.endToEndDelay:stats.record true
param **.throughput:vector.record true
param **.throughput:stats.record true

scalar RplNetwork36.radioMedium.propagation "Arrival computation count" 205812
scalar RplNetwork36.radioMedium "transmission count" 5717
scalar RplNetwork36.radioMedium "signal send count" 205812
scalar RplNetwork36.radioMedium "reception computation count" 205812
scalar RplNetwork36.radioMedium "interference computation count" 622966
scalar RplNetwork36.radioMedium "reception decision computation count" 19493
scalar RplNetwork36.radioMedium "listening decision computation count" 397684
scalar RplNetwork36.radioMedium "reception cache hit" 76.716598242194
attr unit %
scalar RplNetwork36.radioMedium "interference cache hit" 66.666666666667
attr unit %
scalar RplNetwork36.radioMedium "noise cache hit" 0
attr unit %
scalar RplNetwork36.radioMedium "snir cache hit" 50
attr unit %
scalar RplNetwork36.radioMedium "reception decision cache hit" 50
attr unit %
scalar RplNetwork36.radioMedium "reception result cache hit" 0
attr unit %
scalar RplNetwork36.sink[0].lo[0].lo rcvdPkFromHl:count 0
attr interpolationmode none
attr source packetReceivedFromUpper
attr title "packets received from higher layer, count"
scalar RplNetwork36.sink[0].lo[0].lo rcvdPkFromHl:sum(packetBytes) 0
attr interpolationmode none
attr source packetReceivedFromUpper
attr title "packets received from higher layer, sum(packetBytes)"
scalar RplNetwork36.sink[0].lo[0].lo passedUpPk:count 0
attr interpolationmode none
attr source packetSentToUpper
attr title "packets passed to higher layer, count"
scalar RplNetwork36.sink[0].lo[0].lo passedUpPk:sum(packetBytes) 0
attr interpolationmode none
attr source packetSentToUpper
attr title "packets passed to higher layer, sum(packetBytes)"
scalar RplNetwork36.sink[0].wlan[0].mac.queue packetPopped:count 16
attr interpolationmode none
attr title "packet popped, count"
scalar RplNetwork36.sink[0].wlan[0].mac.queue packetPopped:sum(packetBytes) 1608
attr interpolationmode none
attr title "packet popped, sum(packetBytes)"
statistic RplNetwork36.sink[0].wlan[0].mac.queue queueingTime:histogram
field count 16
field mean 0.001348
field stddev 0.00071285342111825
field min 0.000448
field max 0.002368
field sum 0.021568
field sqrsum 3.6696064e-05
attr interpolationmode none
attr source queueingTime(packetPopped)
attr title "queueing times, histogram"
attr unit s
bin	-inf	0
bin	0	0
bin	5e-05	0
bin	0.0001	0
bin	0.00015	0
bin	0.0002	0
bin	0.00025	0
bin	0.0003	0
bin	0.00035	0
bin	0.0004	2
bin	0.00045	0
bin	0.0005	0
bin	0.00055	0
bin	0.0006	0
bin	0.00065	0
bin	0.0007	0
bin	0.00075	6
bin	0.0008	0
bin	0.00085	0
bin	0.0009	0
bin	0.00095	0
bin	0.001	0
bin	0.00105	0
bin	0.0011	0
bin	0.00115	0
bin	0.0012	0
bin	0.00125	0
bin	0.0013	0
bin	0.00135	0
bin	0.0014	0
bin	0.00145	0
bin	0.0015	0
bin	0.00155	0
bin	0.0016	0
bin	0.00165	0
bin	0.0017	3
bin	0.00175	0
bin	0.0018	0
bin	0.00185	0
bin	0.0019	0
bin	0.00195	0
bin	0.002	3
bin	0.00205	0
bin	0.0021	0
bin	0.00215	0
bin	0.0022	0
bin	0.00225	0
bin	0.0023	0
bin	0.00235	2
bin	0.0024	0
bin	0.00245	0
bin	0.0025	0
bin	0.00255	0
bin	0.0026	0
bin	0.00265	0
bin	0.0027	0
bin	0.00275	0
bin	0.0028	0
bin	0.00285	0
scalar RplNetwork36.sink[0].wlan[0].mac.queue queueLength:max 1
attr interpolationmode sample-hold
attr source "count(packetPushed) - count(packetPopped) - count(packetRemoved) - count(packetDropped)"
attr title "queue length, max"
scalar RplNetwork36.sink[0].wlan[0].mac.queue queueLength:timeavg 6.3046489466559e-06
attr interpolationmode sample-hold
attr source "count(packetPushed) - count(packetPopped) - count(packetRemoved) - count(packetDropped)"
attr title "queue length, timeavg"
scalar RplNetwork36.sink[0].wlan[0].mac.queue packetPushed:count 16
attr interpolationmode none
attr title "packet pushed, count"
scalar RplNetwork36.sink[0].wlan[0].mac.queue packetPushed:sum(packetBytes) 1608
attr interpolationmode none
attr title "packet pushed, sum(packetBytes)"
scalar RplNetwork36.sink[0].wlan[0].mac.queue packetDropQueueOverflow:count 0
attr interpolationmode none
attr source packetDropReasonIsQueueOverflow(packetDropped)
attr title "packet drops: queue overflow, count"
scalar RplNetwork36.sink[0].wlan[0].mac.queue packetDropQueueOverflow:sum(packetBytes) 0
attr interpolationmode none
attr source packetDropReasonIsQueueOverflow(packetDropped)
attr title "packet drops: queue overflow, sum(packetBytes)"
scalar RplNetwork36.sink[0].wlan[0].mac.queue packetRemoved:count 0
attr interpolationmode none
attr title "packets removed, count"
scalar RplNetwork36.sink[0].wlan[0].mac.queue packetRemoved:sum(packetBytes) 0
attr interpolationmode none
attr title "packets removed, sum(packetBytes)"
scalar RplNetwork36.sink[0].wlan[0].mac nbTxFrames 56
scalar RplNetwork36.sink[0].wlan[0].mac nbRxFrames 276
scalar RplNetwork36.sink[0].wlan[0].mac nbDroppedFrames 0
scalar RplNetwork36.sink[0].wlan[0].mac nbMissedAcks 0
scalar RplNetwork36.sink[0].wlan[0].mac nbRecvdAcks 35
scalar RplNetwork36.sink[0].wlan[0].mac nbTxAcks 210
scalar RplNetwork36.sink[0].wlan[0].mac nbDuplicates 0
scalar RplNetwork36.sink[0].wlan[0].mac meanBackoff 0.0011028571428571
scalar RplNetwork36.sink[0].wlan[0].mac nbBackoffs 56
scalar RplNetwork36.sink[0].wlan[0].mac backoffDurations 0.06176
scalar RplNetwork36.sink[0].wlan[0].mac packetDropNotAddressToUs:count 471
attr interpolationmode none
attr source packetDropReasonIsNotAddressedToUs(packetDropped)
attr title "packet drop: not addressed to us, count"
scalar RplNetwork36.sink[0].wlan[0].mac packetDropNotAddressToUs:sum(packetBytes) 8619
attr interpolationmode none
attr source packetDropReasonIsNotAddressedToUs(packetDropped)
attr title "packet drop: not addressed to us, sum(packetBytes)"
scalar RplNetwork36.sink[0].wlan[0].mac packetDropIncorrectlyReceived:count 0
attr interpolationmode none
attr source packetDropReasonIsIncorrectlyReceived(packetDropped)
attr title "packet drop: incorrectly received, count"
scalar RplNetwork36.sink[0].wlan[0].mac packetDropIncorrectlyReceived:sum(packetBytes) 0
attr interpolationmode none
attr source packetDropReasonIsIncorrectlyReceived(packetDropped)
attr title "packet drop: incorrectly received, sum(packetBytes)"
scalar RplNetwork36.sink[0].wlan[0].mac packetDropQueueOverflow:count 0
attr interpolationmode none
attr source packetDropReasonIsQueueOverflow(packetDropped)
attr title "packet drop: queue overflow, count"
scalar RplNetwork36.sink[0].wlan[0].mac packetDropQueueOverflow:sum(packetBytes) 0
attr interpolationmode none
attr source packetDropReasonIsQueueOverflow(packetDropped)
attr title "packet drop: queue overflow, sum(packetBytes)"
scalar RplNetwork36.sink[0].wlan[0].mac packetDropRetryLimitReached:count 0
attr interpolationmode none
attr source packetDropReasonIsRetryLimitReached(packetDropped)
attr title "packet drop: retry limit reached, count"
scalar RplNetwork36.sink[0].wlan[0].mac packetDropRetryLimitReached:sum(packetBytes) 0
attr interpolationmode none
attr source packetDropReasonIsRetryLimitReached(packetDropped)
attr title "packet drop: retry limit reached, sum(packetBytes)"
scalar RplNetwork36.sink[0].wlan[0].mac packetDropBackoffLimitReached:count 0
attr interpolationmode none
attr source packetDropReasonIsCongestion(packetDropped)
attr title "packet drop: backoff limit reached, count"
scalar RplNetwork36.sink[0].wlan[0].mac packetDropBackoffLimitReached:sum(packetBytes) 0
attr interpolationmode none
attr source packetDropReasonIsCongestion(packetDropped)
attr title "packet drop: backoff limit reached, sum(packetBytes)"
scalar RplNetwork36.sink[0].wlan[0].mac linkBroken:count 0
attr interpolationmode none
attr source linkBroken
attr title "link break, count"
scalar RplNetwork36.sink[0].wlan[0].radio radioMode:count 382
attr interpolationmode sample-hold
attr source radioModeChanged
attr title "Radio mode, count"
scalar RplNetwork36.sink[0].wlan[0].radio receptionState:count 2732
attr interpolationmode sample-hold
attr source receptionStateChanged
attr title "Radio reception state, count"
scalar RplNetwork36.sink[0].wlan[0].radio transmissionState:count 764
attr interpolationmode sample-hold
attr source transmissionStateChanged
attr title "Radio transmission state, count"
statistic RplNetwork36.sink[0].wlan[0].radio minSnir:histogram
field count 704
field mean 696.32696241351
field stddev 24.936653824152
field min 35.622603815894
field max 697.26679791649
field sum 490214.18153911
field sqrsum 341786503.16603
attr source minimumSnir(packetSentToUpper)
attr title "Min SNIR, histogram"
bin	-inf	0
bin	30	1
bin	40	0
bin	50	0
bin	60	0
bin	70	0
bin	80	0
bin	90	0
bin	100	0
bin	110	0
bin	120	0
bin	130	0
bin	140	0
bin	150	0
bin	160	0
bin	170	0
bin	180	0
bin	190	0
bin	200	0
bin	210	0
bin	220	0
bin	230	0
bin	240	0
bin	250	0
bin	260	0
bin	270	0
bin	280	0
bin	290	0
bin	300	0
bin	310	0
bin	320	0
bin	330	0
bin	340	0
bin	350	0
bin	360	0
bin	370	0
bin	380	0
bin	390	0
bin	400	0
bin	410	0
bin	420	0
bin	430	0
bin	440	0
bin	450	0
bin	460	0
bin	470	0
bin	480	0
bin	490	0
bin	500	0
bin	510	0
bin	520	0
bin	530	0
bin	540	0
bin	550	0
bin	560	0
bin	570	0
bin	580	0
bin	590	0
bin	600	0
bin	610	0
bin	620	0
bin	630	0
bin	640	0
bin	650	0
bin	660	0
bin	670	0
bin	680	0
bin	690	703
bin	700	0
statistic RplNetwork36.sink[0].wlan[0].radio packetErrorRate:histogram
field count 704
field mean 0
field stddev 0
field min 0
field max 0
field sum 0
field sqrsum 0
attr source packetErrorRate(packetSentToUpper)
attr title "Packet error rate, histogram"
bin	-inf	0
bin	-0.5	0
bin	-0.48	0
bin	-0.46	0
bin	-0.44	0
bin	-0.42	0
bin	-0.4	0
bin	-0.38	0
bin	-0.36	0
bin	-0.34	0
bin	-0.32	0
bin	-0.3	0
bin	-0.28	0
bin	-0.26	0
bin	-0.24	0
bin	-0.22	0
bin	-0.2	0
bin	-0.18	0
bin	-0.16	0
bin	-0.14	0
bin	-0.12	0
bin	-0.1	0
bin	-0.08	0
bin	-0.06	0
bin	-0.04	0
bin	-0.02	0
bin	0	704
bin	0.02	0
bin	0.04	0
bin	0.06	0
bin	0.08	0
bin	0.1	0
bin	0.12	0
bin	0.14	0
bin	0.16	0
bin	0.18	0
bin	0.2	0
bin	0.22	0
bin	0.24	0
bin	0.26	0
bin	0.28	0
bin	0.3	0
bin	0.32	0
bin	0.34	0
bin	0.36	0
bin	0.38	0
bin	0.4	0
bin	0.42	0
bin	0.44	0
bin	0.46	0
bin	0.48	0
bin	0.5	0
statistic RplNetwork36.sink[0].wlan[0].radio bitErrorRate:histogram
field count 704
field mean 1.1155387210081e-157
field stddev 2.9598587013578e-156
field min 0
field max 7.853392595897e-155
field sum 7.853392595897e-155
field sqrsum 6.1675775265291e-309
attr source bitErrorRate(packetSentToUpper)
attr title "Bit error rate, histogram"
bin	-inf	0
bin	-0.5	0
bin	-0.48	0
bin	-0.46	0
bin	-0.44	0
bin	-0.42	0
bin	-0.4	0
bin	-0.38	0
bin	-0.36	0
bin	-0.34	0
bin	-0.32	0
bin	-0.3	0
bin	-0.28	0
bin	-0.26	0
bin	-0.24	0
bin	-0.22	0
bin	-0.2	0
bin	-0.18	0
bin	-0.16	0
bin	-0.14	0
bin	-0.12	0
bin	-0.1	0
bin	-0.08	0
bin	-0.06	0
bin	-0.04	0
bin	-0.02	0
bin	0	704
bin	0.02	0
bin	0.04	0
bin	0.06	0
bin	0.08	0
bin	0.1	0
bin	0.12	0
bin	0.14	0
bin	0.16	0
bin	0.18	0
bin	0.2	0
bin	0.22	0
bin	0.24	0
bin	0.26	0
bin	0.28	0
bin	0.3	0
bin	0.32	0
bin	0.34	0
bin	0.36	0
bin	0.38	0
bin	0.4	0
bin	0.42	0
bin	0.44	0
bin	0.46	0
bin	0.48	0
bin	0.5	0
statistic RplNetwork36.sink[0].wlan[0].radio symbolErrorRate:histogram
field count 0
field mean -nan
field stddev -nan
field min -nan
field max -nan
field sum 0
field sqrsum 0
attr source symbolErrorRate(packetSentToUpper)
attr title "Symbol error rate, histogram"
bin	-inf	0
bin	0	0
bin	1	0
scalar RplNetwork36.sink[0].ipv6.neighbourDiscovery startDad:count 0
attr title "DAD started, count"
scalar RplNetwork36.sink[0].udp packetReceived:count 58
attr interpolationmode none
attr source packetReceived
attr title "packets received, count"
scalar RplNetwork36.sink[0].udp packetReceived:sum(packetBytes) 3712
attr interpolationmode none
attr source packetReceived
attr title "packets received, sum(packetBytes)"
scalar RplNetwork36.sink[0].udp packetSent:count 0
attr interpolationmode none
attr source packetSent
attr title "packets sent, count"
scalar RplNetwork36.sink[0].udp packetSent:sum(packetBytes) 0
attr interpolationmode none
attr source packetSent
attr title "packets sent, sum(packetBytes)"
scalar RplNetwork36.sink[0].udp passedUpPk:count 58
attr interpolationmode none
attr source packetSentToUpper
attr title "packets passed up, count"
scalar RplNetwork36.sink[0].udp droppedPkWrongPort:count 0
attr interpolationmode none
attr source packetDropReasonIsNoPortFound(packetDropped)
attr title "packets dropped (wrong port), count"
scalar RplNetwork36.sink[0].udp droppedPkBadChecksum:count 0
attr interpolationmode none
attr source packetDropReasonIsIncorrectlyReceived(packetDropped)
attr title "packets dropped (checksum error), count"
scalar RplNetwork36.sink[0].app[0] packetReceived:count 58
attr interpolationmode none
attr source packetReceived
attr title "packets received, count"
scalar RplNetwork36.sink[0].app[0] packetReceived:sum(packetBytes) 3248
attr interpolationmode none
attr source packetReceived
attr title "packets received, sum(packetBytes)"
statistic RplNetwork36.sink[0].app[0] endToEndDelay:histogram
field count 58
field mean 0.005248133426
field stddev 0.00068409499699402
field min 0.004128133426
field max 0.006368133426
field sum 0.304391738708
field sqrsum 0.0016241636585117
attr interpolationmode none
attr source dataAge(packetReceived)
attr title "end-to-end delay, histogram"
attr unit s
bin	-inf	0
bin	0.00355	0
bin	0.0036	0
bin	0.00365	0
bin	0.0037	0
bin	0.00375	0
bin	0.0038	0
bin	0.00385	0
bin	0.0039	0
bin	0.00395	0
bin	0.004	0
bin	0.00405	0
bin	0.0041	4
bin	0.00415	0
bin	0.0042	0
bin	0.00425	0
bin	0.0043	0
bin	0.00435	0
bin	0.0044	9
bin	0.00445	0
bin	0.0045	0
bin	0.00455	0
bin	0.0046	0
bin	0.00465	0
bin	0.0047	0
bin	0.00475	8
bin	0.0048	0
bin	0.00485	0
bin	0.0049	0
bin	0.00495	0
bin	0.005	0
bin	0.00505	10
bin	0.0051	0
bin	0.00515	0
bin	0.0052	0
bin	0.00525	0
bin	0.0053	0
bin	0.00535	0
bin	0.0054	6
bin	0.00545	0
bin	0.0055	0
bin	0.00555	0
bin	0.0056	0
bin	0.00565	0
bin	0.0057	7
bin	0.00575	0
bin	0.0058	0
bin	0.00585	0
bin	0.0059	0
bin	0.00595	0
bin	0.006	9
bin	0.00605	0
bin	0.0061	0
bin	0.00615	0
bin	0.0062	0
bin	0.00625	0
bin	0.0063	0
bin	0.00635	5
bin	0.0064	0
bin	0.00645	0
bin	0.0065	0
bin	0.00655	0
bin	0.0066	0
bin	0.00665	0
bin	0.0067	0
bin	0.00675	0
bin	0.0068	0
bin	0.00685	0
bin	0.0069	0
bin	0.00695	0
scalar RplNetwork36.sink[0].rpl rank 1
scalar RplNetwork36.sink[0].rpl parentUnreachable:count 0
attr interpolationmode none
attr source parentUnreachable
attr title "Preferred parent unreachability detected, count"
scalar RplNetwork36.sink[0].rpl rankUpdated:count 0
attr interpolationmode none
attr source rankUpdated
attr title "Rank is updated, count"
scalar RplNetwork36.sink[0].rpl parentChanged:count 0
attr interpolationmode none
attr source parentChanged
attr title "Preferred parent has changed, count"
scalar RplNetwork36.sink[0].rpl daoReceived:count 0
attr interpolationmode none
attr source daoReceived
attr title "DAO packets received, count"
scalar RplNetwork36.sink[0].rpl dioReceived:count 0
attr interpolationmode none
attr source dioReceived
attr title "DIO packets received, count"
scalar RplNetwork36.host[0].energyStorage residualEnergyCapacity:last -7.2338967671753
attr interpolationmode linear
attr source residualEnergyCapacityChanged
attr title "Residual energy capacity, last"
scalar RplNetwork36.host[0].lo[0].lo rcvdPkFromHl:count 0
attr interpolationmode none
attr source packetReceivedFromUpper
attr title "packets received from higher layer, count"
scalar RplNetwork36.host[0].lo[0].lo rcvdPkFromHl:sum(packetBytes) 0
attr interpolationmode none
attr source packetReceivedFromUpper
attr title "packets received from higher layer, sum(packetBytes)"
scalar RplNetwork36.host[0].lo[0].lo passedUpPk:count 0
attr interpolationmode none
attr source packetSentToUpper
attr title "packets passed to higher layer, count"
scalar RplNetwork36.host[0].lo[0].lo passedUpPk:sum(packetBytes) 0
attr interpolationmode none
attr source packetSentToUpper
attr title "packets passed to higher layer, sum(packetBytes)"
scalar RplNetwork36.host[0].wlan[0].mac.queue packetPopped:count 77
attr interpolationmode none
attr title "packet popped, count"
scalar RplNetwork36.host[0].wlan[0].mac.queue packetPopped:sum(packetBytes) 8461
attr interpolationmode none
attr title "packet popped, sum(packetBytes)"
statistic RplNetwork36.host[0].wlan[0].mac.queue queueingTime:histogram
field count 77
field mean 0.0012542337662338
field stddev 0.00075156160051665
field min 0.000128
field max 0.002368
field sum 0.096576
field sqrsum 0.000164057088
attr interpolationmode none
attr source queueingTime(packetPopped)
attr title "queueing times, histogram"
attr unit s
bin	-inf	0
bin	0	0
bin	5e-05	0
bin	0.0001	13
bin	0.00015	0
bin	0.0002	0
bin	0.00025	0
bin	0.0003	0
bin	0.00035	0
bin	0.0004	7
bin	0.00045	0
bin	0.0005	0
bin	0.00055	0
bin	0.0006	0
bin	0.00065	0
bin	0.0007	0
bin	0.00075	4
bin	0.0008	0
bin	0.00085	0
bin	0.0009	0
bin	0.00095	0
bin	0.001	0
bin	0.00105	13
bin	0.0011	0
bin	0.00115	0
bin	0.0012	0
bin	0.00125	0
bin	0.0013	0
bin	0.00135	0
bin	0.0014	13
bin	0.00145	0
bin	0.0015	0
bin	0.00155	0
bin	0.0016	0
bin	0.00165	0
bin	0.0017	7
bin	0.00175	0
bin	0.0018	0
bin	0.00185	0
bin	0.0019	0
bin	0.00195	0
bin	0.002	10
bin	0.00205	0
bin	0.0021	0
bin	0.00215	0
bin	0.0022	0
bin	0.00225	0
bin	0.0023	0
bin	0.00235	10
bin	0.0024	0
bin	0.00245	0
bin	0.0025	0
bin	0.00255	0
bin	0.0026	0
bin	0.00265	0
bin	0.0027	0
bin	0.00275	0
bin	0.0028	0
bin	0.00285	0
bin	0.0029	0
bin	0.00295	0
scalar RplNetwork36.host[0].wlan[0].mac.queue queueLength:max 1
attr interpolationmode sample-hold
attr source "count(packetPushed) - count(packetPopped) - count(packetRemoved) - count(packetDropped)"
attr title "queue length, max"
scalar RplNetwork36.host[0].wlan[0].mac.queue queueLength:timeavg 2.7501677487468e-05
attr interpolationmode sample-hold
attr source "count(packetPushed) - count(packetPopped) - count(packetRemoved) - count(packetDropped)"
attr title "queue length, timeavg"
scalar RplNetwork36.host[0].wlan[0].mac.queue packetPushed:count 77
attr interpolationmode none
attr title "packet pushed, count"
scalar RplNetwork36.host[0].wlan[0].mac.queue packetPushed:sum(packetBytes) 8461
attr interpolationmode none
attr title "packet pushed, sum(packetBytes)"
scalar RplNetwork36.host[0].wlan[0].mac.queue packetDropQueueOverflow:count 0
attr interpolationmode none
attr source packetDropReasonIsQueueOverflow(packetDropped)
attr title "packet drops: queue overflow, count"
scalar RplNetwork36.host[0].wlan[0].mac.queue packetDropQueueOverflow:sum(packetBytes) 0
attr interpolationmode none
attr source packetDropReasonIsQueueOverflow(packetDropped)
attr title "packet drops: queue overflow, sum(packetBytes)"
scalar RplNetwork36.host[0].wlan[0].mac.queue packetRemoved:count 0
attr interpolationmode none
attr title "packets removed, count"
scalar RplNetwork36.host[0].wlan[0].mac.queue packetRemoved:sum(packetBytes) 0
attr interpolationmode none
attr title "packets removed, sum(packetBytes)"
scalar RplNetwork36.host[0].wlan[0].mac nbTxFrames 83
scalar RplNetwork36.host[0].wlan[0].mac nbRxFrames 41
scalar RplNetwork36.host[0].wlan[0].mac nbDroppedFrames 0
scalar RplNetwork36.host[0].wlan[0].mac nbMissedAcks 0
scalar RplNetwork36.host[0].wlan[0].mac nbRecvdAcks 60
scalar RplNetwork36.host[0].wlan[0].mac nbTxAcks 1
scalar RplNetwork36.host[0].wlan[0].mac nbDuplicates 0
scalar RplNetwork36.host[0].wlan[0].mac meanBackoff 0.0011103614457831
scalar RplNetwork36.host[0].wlan[0].mac nbBackoffs 83
scalar RplNetwork36.host[0].wlan[0].mac backoffDurations 0.09216
scalar RplNetwork36.host[0].wlan[0].mac packetDropNotAddressToUs:count 118
attr interpolationmode none
attr source packetDropReasonIsNotAddressedToUs(packetDropped)
attr title "packet drop: not addressed to us, count"
scalar RplNetwork36.host[0].wlan[0].mac packetDropNotAddressToUs:sum(packetBytes) 13334
attr interpolationmode none
attr source packetDropReasonIsNotAddressedToUs(packetDropped)
attr title "packet drop: not addressed to us, sum(packetBytes)"
scalar RplNetwork36.host[0].wlan[0].mac packetDropIncorrectlyReceived:count 0
attr interpolationmode none
attr source packetDropReasonIsIncorrectlyReceived(packetDropped)
attr title "packet drop: incorrectly received, count"
scalar RplNetwork36.host[0].wlan[0].mac packetDropIncorrectlyReceived:sum(packetBytes) 0
attr interpolationmode none
attr source packetDropReasonIsIncorrectlyReceived(packetDropped)
attr title "packet drop: incorrectly received, sum(packetBytes)"
scalar RplNetwork36.host[0].wlan[0].mac packetDropQueueOverflow:count 0
attr interpolationmode none
attr source packetDropReasonIsQueueOverflow(packetDropped)
attr title "packet drop: queue overflow, count"
scalar RplNetwork36.host[0].wlan[0].mac packetDropQueueOverflow:sum(packetBytes) 0
attr interpolationmode none
attr source packetDropReasonIsQueueOverflow(packetDropped)
attr title "packet drop: queue overflow, sum(packetBytes)"
scalar RplNetwork36.host[0].wlan[0].mac packetDropRetryLimitReached:count 0
attr interpolationmode none
attr source packetDropReasonIsRetryLimitReached(packetDropped)
attr title "packet drop: retry limit reached, count"
scalar RplNetwork36.host[0].wlan[0].mac packetDropRetryLimitReached:sum(packetBytes) 0
attr interpolationmode none
attr source packetDropReasonIsRetryLimitReached(packetDropped)
attr title "packet drop: retry limit reached, sum(packetBytes)"
scalar RplNetwork36.host[0].wlan[0].mac packetDropBackoffLimitReached:count 0
attr interpolationmode none
attr source packetDropReasonIsCongestion(packetDropped)
attr title "packet drop: backoff limit reached, count"
scalar RplNetwork36.host[0].wlan[0].mac packetDropBackoffLimitReached:sum(packetBytes) 0
attr interpolationmode none
attr source packetDropReasonIsCongestion(packetDropped)
attr title "packet drop: backoff limit reached, sum(packetBytes)"
scalar RplNetwork36.host[0].wlan[0].mac linkBroken:count 0
attr interpolationmode none
attr source linkBroken
attr title "link break, count"
scalar RplNetwork36.host[0].wlan[0].radio radioMode:count 154
attr interpolationmode sample-hold
attr source radioModeChanged
attr title "Radio mode, count"
scalar RplNetwork36.host[0].wlan[0].radio receptionState:count 840
attr interpolationmode sample-hold
attr source receptionStateChanged
attr title "Radio reception state, count"
scalar RplNetwork36.host[0].wlan[0].radio transmissionState:count 308
attr interpolationmode sample-hold
attr source transmissionStateChanged
attr title "Radio transmission state, count"
statistic RplNetwork36.host[0].wlan[0].radio minSnir:histogram
field count 208
field mean 694.93336507091
field stddev 33.653247090435
field min 211.91276603438
field max 697.26679791649
field sum 144546.13993475
field sqrsum 100684371.42809
attr source minimumSnir(packetSentToUpper)
attr title "Min SNIR, histogram"
bin	-inf	0
bin	210	1
bin	220	0
bin	230	0
bin	240	0
bin	250	0
bin	260	0
bin	270	0
bin	280	0
bin	290	0
bin	300	0
bin	310	0
bin	320	0
bin	330	0
bin	340	0
bin	350	0
bin	360	0
bin	370	0
bin	380	0
bin	390	0
bin	400	0
bin	410	0
bin	420	0
bin	430	0
bin	440	0
bin	450	0
bin	460	0
bin	470	0
bin	480	0
bin	490	0
bin	500	0
bin	510	0
bin	520	0
bin	530	0
bin	540	0
bin	550	0
bin	560	0
bin	570	0
bin	580	0
bin	590	0
bin	600	0
bin	610	0
bin	620	0
bin	630	0
bin	640	0
bin	650	0
bin	660	0
bin	670	0
bin	680	0
bin	690	207
bin	700	0
statistic RplNetwork36.host[0].wlan[0].radio packetErrorRate:histogram
field count 208
field mean 0
field stddev 0
field min 0
field max 0
field sum 0
field sqrsum 0
attr source packetErrorRate(packetSentToUpper)
attr title "Packet error rate, histogram"
bin	-inf	0
bin	-0.5	0
bin	-0.48	0
bin	-0.46	0
bin	-0.44	0
bin	-0.42	0
bin	-0.4	0
bin	-0.38	0
bin	-0.36	0
bin	-0.34	0
bin	-0.32	0
bin	-0.3	0
bin	-0.28	0
bin	-0.26	0
bin	-0.24	0
bin	-0.22	0
bin	-0.2	0
bin	-0.18	0
bin	-0.16	0
bin	-0.14	0
bin	-0.12	0
bin	-0.1	0
bin	-0.08	0
bin	-0.06	0
bin	-0.04	0
bin	-0.02	0
bin	0	208
bin	0.02	0
bin	0.04	0
bin	0.06	0
bin	0.08	0
bin	0.1	0
bin	0.12	0
bin	0.14	0
bin	0.16	0
bin	0.18	0
bin	0.2	0
bin	0.22	0
bin	0.24	0
bin	0.26	0
bin	0.28	0
bin	0.3	0
bin	0.32	0
bin	0.34	0
bin	0.36	0
bin	0.38	0
bin	0.4	0
bin	0.42	0
bin	0.44	0
bin	0.46	0
bin	0.48	0
bin	0.5	0
statistic RplNetwork36.host[0].wlan[0].radio bitErrorRate:histogram
field count 208
field mean 0
field stddev 0
field min 0
field max 0
field sum 0
field sqrsum 0
attr source bitErrorRate(packetSentToUpper)
attr title "Bit error rate, histogram"
bin	-inf	0
bin	-0.5	0
bin	-0.48	0
bin	-0.46	0
bin	-0.44	0
bin	-0.42	0
bin	-0.4	0
bin	-0.38	0
bin	-0.36	0
bin	-0.34	0
bin	-0.32	0
bin	-0.3	0
bin	-0.28	0
bin	-0.26	0
bin	-0.24	0
bin	-0.22	0
bin	-0.2	0
bin	-0.18	0
bin	-0.16	0
bin	-0.14	0
bin	-0.12	0
bin	-0.1	0
bin	-0.08	0
bin	-0.06	0
bin	-0.04	0
bin	-0.02	0
bin	0	208
bin	0.02	0
bin	0.04	0
bin	0.06	0
bin	0.08	0
bin	0.1	0
bin	0.12	0
bin	0.14	0
bin	0.16	0
bin	0.18	0
bin	0.2	0
bin	0.22	0
bin	0.24	0
bin	0.26	0
bin	0.28	0
bin	0.3	0
bin	0.32	0
bin	0.34	0
bin	0.36	0
bin	0.38	0
bin	0.4	0
bin	0.42	0
bin	0.44	0
bin	0.46	0
bin	0.48	0
bin	0.5	0
statistic RplNetwork36.host[0].wlan[0].radio symbolErrorRate:histogram
field count 0
field mean -nan
field stddev -nan
field min -nan
field max -nan
field sum 0
field sqrsum 0
attr source symbolErrorRate(packetSentToUpper)
attr title "Symbol error rate, histogram"
bin	-inf	0
bin	0	0
bin	1	0
scalar RplNetwork36.host[0].ipv6.neighbourDiscovery startDad:count 0
attr title "DAD started, count"
scalar RplNetwork36.host[0].udp packetReceived:count 0
attr interpolationmode none
attr source packetReceived
attr title "packets received, count"
scalar RplNetwork36.host[0].udp packetReceived:sum(packetBytes) 0
attr interpolationmode none
attr source packetReceived
attr title "packets received, sum(packetBytes)"
scalar RplNetwork36.host[0].udp packetSent:count 59
attr interpolationmode none
attr source packetSent
attr title "packets sent, count"
scalar RplNetwork36.host[0].udp packetSent:sum(packetBytes) 3776
attr interpolationmode none
attr source packetSent
attr title "packets sent, sum(packetBytes)"
scalar RplNetwork36.host[0].udp passedUpPk:count 0
attr interpolationmode none
attr source packetSentToUpper
attr title "packets passed up, count"
scalar RplNetwork36.host[0].udp droppedPkWrongPort:count 0
attr interpolationmode none
attr source packetDropReasonIsNoPortFound(packetDropped)
attr title "packets dropped (wrong port), count"
scalar RplNetwork36.host[0].udp droppedPkBadChecksum:count 0
attr interpolationmode none
attr source packetDropReasonIsIncorrectlyReceived(packetDropped)
attr title "packets dropped (checksum error), count"
scalar RplNetwork36.host[0].app[0] "packets sent" 59
scalar RplNetwork36.host[0].app[0] "packets received" 0
scalar RplNetwork36.host[0].app[0] packetReceived:count 0
attr interpolationmode none
attr source packetReceived
attr title "packets received, count"
scalar RplNetwork36.host[0].app[0] packetReceived:sum(packetBytes) 0
attr interpolationmode none
attr source packetReceived
attr title "packets received, sum(packetBytes)"
statistic RplNetwork36.host[0].app[0] rcvdPkLifetime:stats
field count 0
field mean -nan
field stddev -nan
field min -nan
field max -nan
field sum 0
field sqrsum 0
attr interpolationmode none
attr source dataAge(packetReceived)
attr title "received packet lifetime, stats"
attr unit s
scalar RplNetwork36.host[0].app[0] packetSent:count 59
attr interpolationmode none
attr source packetSent
attr title "packets sent, count"
scalar RplNetwork36.host[0].app[0] packetSent:sum(packetBytes) 3304
attr interpolationmode none
attr source packetSent
attr title "packets sent, sum(packetBytes)"
scalar RplNetwork36.host[0].rpl rank 6
scalar RplNetwork36.host[0].rpl parentId 6
scalar RplNetwork36.host[0].rpl parentUnreachable:count 0
attr interpolationmode none
attr source parentUnreachable
attr title "Preferred parent unreachability detected, count"
scalar RplNetwork36.host[0].rpl rankUpdated:count 0
attr interpolationmode none
attr source rankUpdated
attr title "Rank is updated, count"
scalar RplNetwork36.host[0].rpl parentChanged:count 0
attr interpolationmode none
attr source parentChanged
attr title "Preferred parent has changed, count"
scalar RplNetwork36.host[0].rpl daoReceived:count 0
attr interpolationmode none
attr source daoReceived
attr title "DAO packets received, count"
scalar RplNetwork36.host[0].rpl dioReceived:count 7
attr interpolationmode none
attr source dioReceived
attr title "DIO packets received, count"
scalar RplNetwork36.host[1].energyStorage residualEnergyCapacity:last -7.2364301429085
attr interpolationmode linear
attr source residualEnergyCapacityChanged
attr title "Residual energy capacity, last"
scalar RplNetwork36.host[1].lo[0].lo rcvdPkFromHl:count 0
attr interpolationmode none
attr source packetReceivedFromUpper
attr title "packets received from higher layer, count"
scalar RplNetwork36.host[1].lo[0].lo rcvdPkFromHl:sum(packetBytes) 0
attr interpolationmode none
attr source packetReceivedFromUpper
attr title "packets received from higher layer, sum(packetBytes)"
scalar RplNetwork36.host[1].lo[0].lo passedUpPk:count 0
attr interpolationmode none
attr source packetSentToUpper
attr title "packets passed to higher layer, count"
scalar RplNetwork36.host[1].lo[0].lo passedUpPk:sum(packetBytes) 0
attr interpolationmode none
attr source packetSentToUpper
attr title "packets passed to higher layer, sum(packetBytes)"
scalar RplNetwork36.host[1].wlan[0].mac.queue packetPopped:count 73
attr interpolationmode none
attr title "packet popped, count"
scalar RplNetwork36.host[1].wlan[0].mac.queue packetPopped:sum(packetBytes) 8169
attr interpolationmode none
attr title "packet popped, sum(packetBytes)"
statistic RplNetwork36.host[1].wlan[0].mac.queue queueingTime:histogram
field count 73
field mean 0.0013334794520548
field stddev 0.00073228152050039
field min 0.000128
field max 0.002368
field sum 0.097344
field sqrsum 0.000168415232
attr interpolationmode none
attr source queueingTime(packetPopped)
attr title "queueing times, histogram"
attr unit s
bin	-inf	0
bin	0	0
bin	5e-05	0
bin	0.0001	8
bin	0.00015	0
bin	0.0002	0
bin	0.00025	0
bin	0.0003	0
bin	0.00035	0
bin	0.0004	6
bin	0.00045	0
bin	0.0005	0
bin	0.00055	0
bin	0.0006	0
bin	0.00065	0
bin	0.0007	0
bin	0.00075	9
bin	0.0008	0
bin	0.00085	0
bin	0.0009	0
bin	0.00095	0
bin	0.001	0
bin	0.00105	12
bin	0.0011	0
bin	0.00115	0
bin	0.0012	0
bin	0.00125	0
bin	0.0013	0
bin	0.00135	0
bin	0.0014	8
bin	0.00145	0
bin	0.0015	0
bin	0.00155	0
bin	0.0016	0
bin	0.00165	0
bin	0.0017	8
bin	0.00175	0
bin	0.0018	0
bin	0.00185	0
bin	0.0019	0
bin	0.00195	0
bin	0.002	11
bin	0.00205	0
bin	0.0021	0
bin	0.00215	0
bin	0.0022	0
bin	0.00225	0
bin	0.0023	0
bin	0.00235	11
bin	0.0024	0
bin	0.00245	0
bin	0.0025	0
bin	0.00255	0
bin	0.0026	0
bin	0.00265	0
bin	0.0027	0
bin	0.00275	0
bin	0.0028	0
bin	0.00285	0
bin	0.0029	0
bin	0.00295	0
scalar RplNetwork36.host[1].wlan[0].mac.queue queueLength:max 1
attr interpolationmode sample-hold
attr source "count(packetPushed) - count(packetPopped) - count(packetRemoved) - count(packetDropped)"
attr title "queue length, max"
scalar RplNetwork36.host[1].wlan[0].mac.queue queueLength:timeavg 2.9496601727494e-05
attr interpolationmode sample-hold
attr source "count(packetPushed) - count(packetPopped) - count(packetRemoved) - count(packetDropped)"
attr title "queue length, timeavg"
scalar RplNetwork36.host[1].wlan[0].mac.queue packetPushed:count 73
attr interpolationmode none
attr title "packet pushed, count"
scalar RplNetwork36.host[1].wlan[0].mac.queue packetPushed:sum(packetBytes) 8169
attr interpolationmode none
attr title "packet pushed, sum(packetBytes)"
scalar RplNetwork36.host[1].wlan[0].mac.queue packetDropQueueOverflow:count 0
attr interpolationmode none
attr source packetDropReasonIsQueueOverflow(packetDropped)
attr title "packet drops: queue overflow, count"
scalar RplNetwork36.host[1].wlan[0].mac.queue packetDropQueueOverflow:sum(packetBytes) 0
attr interpolationmode none
attr source packetDropReasonIsQueueOverflow(packetDropped)
attr title "packet drops: queue overflow, sum(packetBytes)"
scalar RplNetwork36.host[1].wlan[0].mac.queue packetRemoved:count 0
attr interpolationmode none
attr title "packets removed, count"
scalar RplNetwork36.host[1].wlan[0].mac.queue packetRemoved:sum(packetBytes) 0
attr interpolationmode none
attr title "packets removed, sum(packetBytes)"
scalar RplNetwork36.host[1].wlan[0].mac nbTxFrames 79
scalar RplNetwork36.host[1].wlan[0].mac nbRxFrames 64
scalar RplNetwork36.host[1].wlan[0].mac nbDroppedFrames 0
scalar RplNetwork36.host[1].wlan[0].mac nbMissedAcks 0
scalar RplNetwork36.host[1].wlan[0].mac nbRecvdAcks 60
scalar RplNetwork36.host[1].wlan[0].mac nbTxAcks 1
scalar RplNetwork36.host[1].wlan[0].mac nbDuplicates 0
scalar RplNetwork36.host[1].wlan[0].mac meanBackoff 0.0011908860759494
scalar RplNetwork36.host[1].wlan[0].mac nbBackoffs 79
scalar RplNetwork36.host[1].wlan[0].mac backoffDurations 0.09408
scalar RplNetwork36.host[1].wlan[0].mac packetDropNotAddressToUs:count 233
attr interpolationmode none
attr source packetDropReasonIsNotAddressedToUs(packetDropped)
attr title "packet drop: not addressed to us, count"
scalar RplNetwork36.host[1].wlan[0].mac packetDropNotAddressToUs:sum(packetBytes) 20065
attr interpolationmode none
attr source packetDropReasonIsNotAddressedToUs(packetDropped)
attr title "packet drop: not addressed to us, sum(packetBytes)"
scalar RplNetwork36.host[1].wlan[0].mac packetDropIncorrectlyReceived:count 0
attr interpolationmode none
attr source packetDropReasonIsIncorrectlyReceived(packetDropped)
attr title "packet drop: incorrectly received, count"
scalar RplNetwork36.host[1].wlan[0].mac packetDropIncorrectlyReceived:sum(packetBytes) 0
attr interpolationmode none
attr source packetDropReasonIsIncorrectlyReceived(packetDropped)
attr title "packet drop: incorrectly received, sum(packetBytes)"
scalar RplNetwork36.host[1].wlan[0].mac packetDropQueueOverflow:count 0
attr interpolationmode none
attr source packetDropReasonIsQueueOverflow(packetDropped)
attr title "packet drop: queue overflow, count"
scalar RplNetwork36.host[1].wlan[0].mac packetDropQueueOverflow:sum(packetBytes) 0
attr interpolationmode none
attr source packetDropReasonIsQueueOverflow(packetDropped)
attr title "packet drop: queue overflow, sum(packetBytes)"
scalar RplNetwork36.host[1].wlan[0].mac packetDropRetryLimitReached:count 0
attr interpolationmode none
attr source packetDropReasonIsRetryLimitReached(packetDropped)
attr title "packet drop: retry limit reached, count"
scalar RplNetwork36.host[1].wlan[0].mac packetDropRetryLimitReached:sum(packetBytes) 0
attr interpolationmode none
attr source packetDropReasonIsRetryLimitReached(packetDropped)
attr title "packet drop: retry limit reached, sum(packetBytes)"
scalar RplNetwork36.host[1].wlan[0].mac packetDropBackoffLimitReached:count 0
attr interpolationmode none
attr source packetDropReasonIsCongestion(packetDropped)
attr title "packet drop: backoff limit reached, count"
scalar RplNetwork36.host[1].wlan[0].mac packetDropBackoffLimitReached:sum(packetBytes) 0
attr interpolationmode none
attr source packetDropReasonIsCongestion(packetDropped)
attr title "packet drop: backoff limit reached, sum(packetBytes)"
scalar RplNetwork36.host[1].wlan[0].mac linkBroken:count 0
attr interpolationmode none
attr source linkBroken
attr title "link break, count"
scalar RplNetwork36.host[1].wlan[0].radio radioMode:count 146
attr interpolationmode sample-hold
attr source radioModeChanged
attr title "Radio mode, count"
scalar RplNetwork36.host[1].wlan[0].radio receptionState:count 1370
attr interpolationmode sample-hold
attr source receptionStateChanged
attr title "Radio reception state, count"
scalar RplNetwork36.host[1].wlan[0].radio transmissionState:count 292
attr interpolationmode sample-hold
attr source transmissionStateChanged
attr title "Radio transmission state, count"
statistic RplNetwork36.host[1].wlan[0].radio minSnir:histogram
field count 345
field mean 695.42740431607
field stddev 34.165219770448
field min 62.67600576823
field max 697.26679791649
field sum 239922.45448904
field sqrsum 167250187.97369
attr source minimumSnir(packetSentToUpper)
attr title "Min SNIR, histogram"
bin	-inf	0
bin	60	1
bin	70	0
bin	80	0
bin	90	0
bin	100	0
bin	110	0
bin	120	0
bin	130	0
bin	140	0
bin	150	0
bin	160	0
bin	170	0
bin	180	0
bin	190	0
bin	200	0
bin	210	0
bin	220	0
bin	230	0
bin	240	0
bin	250	0
bin	260	0
bin	270	0
bin	280	0
bin	290	0
bin	300	0
bin	310	0
bin	320	0
bin	330	0
bin	340	0
bin	350	0
bin	360	0
bin	370	0
bin	380	0
bin	390	0
bin	400	0
bin	410	0
bin	420	0
bin	430	0
bin	440	0
bin	450	0
bin	460	0
bin	470	0
bin	480	0
bin	490	0
bin	500	0
bin	510	0
bin	520	0
bin	530	0
bin	540	0
bin	550	0
bin	560	0
bin	570	0
bin	580	0
bin	590	0
bin	600	0
bin	610	0
bin	620	0
bin	630	0
bin	640	0
bin	650	0
bin	660	0
bin	670	0
bin	680	0
bin	690	344
bin	700	0
statistic RplNetwork36.host[1].wlan[0].radio packetErrorRate:histogram
field count 345
field mean 0
field stddev 0
field min 0
field max 0
field sum 0
field sqrsum 0
attr source packetErrorRate(packetSentToUpper)
attr title "Packet error rate, histogram"
bin	-inf	0
bin	-0.5	0
bin	-0.48	0
bin	-0.46	0
bin	-0.44	0
bin	-0.42	0
bin	-0.4	0
bin	-0.38	0
bin	-0.36	0
bin	-0.34	0
bin	-0.32	0
bin	-0.3	0
bin	-0.28	0
bin	-0.26	0
bin	-0.24	0
bin	-0.22	0
bin	-0.2	0
bin	-0.18	0
bin	-0.16	0
bin	-0.14	0
bin	-0.12	0
bin	-0.1	0
bin	-0.08	0
bin	-0.06	0
bin	-0.04	0
bin	-0.02	0
bin	0	345
bin	0.02	0
bin	0.04	0
bin	0.06	0
bin	0.08	0
bin	0.1	0
bin	0.12	0
bin	0.14	0
bin	0.16	0
bin	0.18	0
bin	0.2	0
bin	0.22	0
bin	0.24	0
bin	0.26	0
bin	0.28	0
bin	0.3	0
bin	0.32	0
bin	0.34	0
bin	0.36	0
bin	0.38	0
bin	0.4	0
bin	0.42	0
bin	0.44	0
bin	0.46	0
bin	0.48	0
bin	0.5	0
statistic RplNetwork36.host[1].wlan[0].radio bitErrorRate:histogram
field count 345
field mean 7.3418645418922e-275
field stddev 0
field min 0
field max 2.5329432669528e-272
field sum 2.5329432669528e-272
field sqrsum 0
attr source bitErrorRate(packetSentToUpper)
attr title "Bit error rate, histogram"
bin	-inf	0
bin	-0.5	0
bin	-0.48	0
bin	-0.46	0
bin	-0.44	0
bin	-0.42	0
bin	-0.4	0
bin	-0.38	0
bin	-0.36	0
bin	-0.34	0
bin	-0.32	0
bin	-0.3	0
bin	-0.28	0
bin	-0.26	0
bin	-0.24	0
bin	-0.22	0
bin	-0.2	0
bin	-0.18	0
bin	-0.16	0
bin	-0.14	0
bin	-0.12	0
bin	-0.1	0
bin	-0.08	0
bin	-0.06	0
bin	-0.04	0
bin	-0.02	0
bin	0	345
bin	0.02	0
bin	0.04	0
bin	0.06	0
bin	0.08	0
bin	0.1	0
bin	0.12	0
bin	0.14	0
bin	0.16	0
bin	0.18	0
bin	0.2	0
bin	0.22	0
bin	0.24	0
bin	0.26	0
bin	0.28	0
bin	0.3	0
bin	0.32	0
bin	0.34	0
bin	0.36	0
bin	0.38	0
bin	0.4	0
bin	0.42	0
bin	0.44	0
bin	0.46	0
bin	0.48	0
bin	0.5	0
statistic RplNetwork36.host[1].wlan[0].radio symbolErrorRate:histogram
field count 0
field mean -nan
field stddev -nan
field min -nan
field max -nan
field sum 0
field sqrsum 0
attr source symbolErrorRate(packetSentToUpper)
attr title "Symbol error rate, histogram"
bin	-inf	0
bin	0	0
bin	1	0
scalar RplNetwork36.host[1].ipv6.neighbourDiscovery startDad:count 0
attr title "DAD started, count"
scalar RplNetwork36.host[1].udp packetReceived:count 0
attr interpolationmode none
attr source packetReceived
attr title "packets received, count"
scalar RplNetwork36.host[1].udp packetReceived:sum(packetBytes) 0
attr interpolationmode none
attr source packetReceived
attr title "packets received, sum(packetBytes)"
scalar RplNetwork36.host[1].udp packetSent:count 59
attr interpolationmode none
attr source packetSent
attr title "packets sent, count"
scalar RplNetwork36.host[1].udp packetSent:sum(packetBytes) 3776
attr interpolationmode none
attr source packetSent
attr title "packets sent, sum(packetBytes)"
scalar RplNetwork36.host[1].udp passedUpPk:count 0
attr interpolationmode none
attr source packetSentToUpper
attr title "packets passed up, count"
scalar RplNetwork36.host[1].udp droppedPkWrongPort:count 0
attr interpolationmode none
attr source packetDropReasonIsNoPortFound(packetDropped)
attr title "packets dropped (wrong port), count"
scalar RplNetwork36.host[1].udp droppedPkBadChecksum:count 0
attr interpolationmode none
attr source packetDropReasonIsIncorrectlyReceived(packetDropped)
attr title "packets dropped (checksum error), count"
scalar RplNetwork36.host[1].app[0] "packets sent" 59
scalar RplNetwork36.host[1].app[0] "packets received" 0
scalar RplNetwork36.host[1].app[0] packetReceived:count 0
attr interpolationmode none
attr source packetReceived
attr title "packets received, count"
scalar RplNetwork36.host[1].app[0] packetReceived:sum(packetBytes) 0
attr interpolationmode none
attr source packetReceived
attr title "packets received, sum(packetBytes)"
statistic RplNetwork36.host[1].app[0] rcvdPkLifetime:stats
field count 0
field mean -nan
field stddev -nan
field min -nan
field max -nan
field sum 0
field sqrsum 0
attr interpolationmode none
attr source dataAge(packetReceived)
attr title "received packet lifetime, stats"
attr unit s
scalar RplNetwork36.host[1].app[0] packetSent:count 59
attr interpolationmode none
attr source packetSent
attr title "packets sent, count"
scalar RplNetwork36.host[1].app[0] packetSent:sum(packetBytes) 3304
attr interpolationmode none
attr source packetSent
attr title "packets sent, sum(packetBytes)"
scalar RplNetwork36.host[1].rpl rank 5
scalar RplNetwork36.host[1].rpl parentId 7
scalar RplNetwork36.host[1].rpl parentUnreachable:count 0
attr interpolationmode none
attr source parentUnreachable
attr title "Preferred parent unreachability detected, count"
scalar RplNetwork36.host[1].rpl rankUpdated:count 0
attr interpolationmode none
attr source rankUpdated
attr title "Rank is updated, count"
scalar RplNetwork36.host[1].rpl parentChanged:count 0
attr interpolationmode none
attr source parentChanged
attr title "Preferred parent has changed, count"
scalar RplNetwork36.host[1].rpl daoReceived:count 0
attr interpolationmode none
attr source daoReceived
attr title "DAO packets received, count"
scalar RplNetwork36.host[1].rpl dioReceived:count 18
attr interpolationmode none
attr source dioReceived
attr title "DIO packets received, count"
scalar RplNetwork36.host[2].energyStorage residualEnergyCapacity:last -7.2383584631753
attr interpolationmode linear
attr source residualEnergyCapacityChanged
attr title "Residual energy capacity, last"
scalar RplNetwork36.host[2].lo[0].lo rcvdPkFromHl:count 0
attr interpolationmode none
attr source packetReceivedFromUpper
attr title "packets received from higher layer, count"
scalar RplNetwork36.host[2].lo[0].lo rcvdPkFromHl:sum(packetBytes) 0
attr interpolationmode none
attr source packetReceivedFromUpper
attr title "packets received from higher layer, sum(packetBytes)"
scalar RplNetwork36.host[2].lo[0].lo passedUpPk:count 0
attr interpolationmode none
attr source packetSentToUpper
attr title "packets passed to higher layer, count"
scalar RplNetwork36.host[2].lo[0].lo passedUpPk:sum(packetBytes) 0
attr interpolationmode none
attr source packetSentToUpper
attr title "packets passed to higher layer, sum(packetBytes)"
scalar RplNetwork36.host[2].wlan[0].mac.queue packetPopped:count 75
attr interpolationmode none
attr title "packet popped, count"
scalar RplNetwork36.host[2].wlan[0].mac.queue packetPopped:sum(packetBytes) 8235
attr interpolationmode none
attr title "packet popped, sum(packetBytes)"
statistic RplNetwork36.host[2].wlan[0].mac.queue queueingTime:histogram
field count 75
field mean 0.0011861333333333
field stddev 0.00067365219459249
field min 0.000128
field max 0.002368
field sum 0.08896
field sqrsum 0.00013910016
attr interpolationmode none
attr source queueingTime(packetPopped)
attr title "queueing times, histogram"
attr unit s
bin	-inf	0
bin	0	0
bin	5e-05	0
bin	0.0001	7
bin	0.00015	0
bin	0.0002	0
bin	0.00025	0
bin	0.0003	0
bin	0.00035	0
bin	0.0004	12
bin	0.00045	0
bin	0.0005	0
bin	0.00055	0
bin	0.0006	0
bin	0.00065	0
bin	0.0007	0
bin	0.00075	9
bin	0.0008	0
bin	0.00085	0
bin	0.0009	0
bin	0.00095	0
bin	0.001	0
bin	0.00105	12
bin	0.0011	0
bin	0.00115	0
bin	0.0012	0
bin	0.00125	0
bin	0.0013	0
bin	0.00135	0
bin	0.0014	13
bin	0.00145	0
bin	0.0015	0
bin	0.00155	0
bin	0.0016	0
bin	0.00165	0
bin	0.0017	9
bin	0.00175	0
bin	0.0018	0
bin	0.00185	0
bin	0.0019	0
bin	0.00195	0
bin	0.002	6
bin	0.00205	0
bin	0.0021	0
bin	0.00215	0
bin	0.0022	0
bin	0.00225	0
bin	0.0023	0
bin	0.00235	7
bin	0.0024	0
bin	0.00245	0
bin	0.0025	0
bin	0.00255	0
bin	0.0026	0
bin	0.00265	0
bin	0.0027	0
bin	0.00275	0
bin	0.0028	0
bin	0.00285	0
bin	0.0029	0
bin	0.00295	0
scalar RplNetwork36.host[2].wlan[0].mac.queue queueLength:max 1
attr interpolationmode sample-hold
attr source "count(packetPushed) - count(packetPopped) - count(packetRemoved) - count(packetDropped)"
attr title "queue length, max"
scalar RplNetwork36.host[2].wlan[0].mac.queue queueLength:timeavg 2.5302579749119e-05
attr interpolationmode sample-hold
attr source "count(packetPushed) - count(packetPopped) - count(packetRemoved) - count(packetDropped)"
attr title "queue length, timeavg"
scalar RplNetwork36.host[2].wlan[0].mac.queue packetPushed:count 75
attr interpolationmode none
attr title "packet pushed, count"
scalar RplNetwork36.host[2].wlan[0].mac.queue packetPushed:sum(packetBytes) 8235
attr interpolationmode none
attr title "packet pushed, sum(packetBytes)"
scalar RplNetwork36.host[2].wlan[0].mac.queue packetDropQueueOverflow:count 0
attr interpolationmode none
attr source packetDropReasonIsQueueOverflow(packetDropped)
attr title "packet drops: queue overflow, count"
scalar RplNetwork36.host[2].wlan[0].mac.queue packetDropQueueOverflow:sum(packetBytes) 0
attr interpolationmode none
attr source packetDropReasonIsQueueOverflow(packetDropped)
attr title "packet drops: queue overflow, sum(packetBytes)"
scalar RplNetwork36.host[2].wlan[0].mac.queue packetRemoved:count 0
attr interpolationmode none
attr title "packets removed, count"
scalar RplNetwork36.host[2].wlan[0].mac.queue packetRemoved:sum(packetBytes) 0
attr interpolationmode none
attr title "packets removed, sum(packetBytes)"
scalar RplNetwork36.host[2].wlan[0].mac nbTxFrames 81
scalar RplNetwork36.host[2].wlan[0].mac nbRxFrames 121
scalar RplNetwork36.host[2].wlan[0].mac nbDroppedFrames 0
scalar RplNetwork36.host[2].wlan[0].mac nbMissedAcks 0
scalar RplNetwork36.host[2].wlan[0].mac nbRecvdAcks 61
scalar RplNetwork36.host[2].wlan[0].mac nbTxAcks 61
scalar RplNetwork36.host[2].wlan[0].mac nbDuplicates 0
scalar RplNetwork36.host[2].wlan[0].mac meanBackoff 0.0010548148148148
scalar RplNetwork36.host[2].wlan[0].mac nbBackoffs 81
scalar RplNetwork36.host[2].wlan[0].mac backoffDurations 0.08544
scalar RplNetwork36.host[2].wlan[0].mac packetDropNotAddressToUs:count 118
attr interpolationmode none
attr source packetDropReasonIsNotAddressedToUs(packetDropped)
attr title "packet drop: not addressed to us, count"
scalar RplNetwork36.host[2].wlan[0].mac packetDropNotAddressToUs:sum(packetBytes) 13334
attr interpolationmode none
attr source packetDropReasonIsNotAddressedToUs(packetDropped)
attr title "packet drop: not addressed to us, sum(packetBytes)"
scalar RplNetwork36.host[2].wlan[0].mac packetDropIncorrectlyReceived:count 0
attr interpolationmode none
attr source packetDropReasonIsIncorrectlyReceived(packetDropped)
attr title "packet drop: incorrectly received, count"
scalar RplNetwork36.host[2].wlan[0].mac packetDropIncorrectlyReceived:sum(packetBytes) 0
attr interpolationmode none
attr source packetDropReasonIsIncorrectlyReceived(packetDropped)
attr title "packet drop: incorrectly received, sum(packetBytes)"
scalar RplNetwork36.host[2].wlan[0].mac packetDropQueueOverflow:count 0
attr interpolationmode none
attr source packetDropReasonIsQueueOverflow(packetDropped)
attr title "packet drop: queue overflow, count"
scalar RplNetwork36.host[2].wlan[0].mac packetDropQueueOverflow:sum(packetBytes) 0
attr interpolationmode none
attr source packetDropReasonIsQueueOverflow(packetDropped)
attr title "packet drop: queue overflow, sum(packetBytes)"
scalar RplNetwork36.host[2].wlan[0].mac packetDropRetryLimitReached:count 0
attr interpolationmode none
attr source packetDropReasonIsRetryLimitReached(packetDropped)
attr title "packet drop: retry limit reached, count"
scalar RplNetwork36.host[2].wlan[0].mac packetDropRetryLimitReached:sum(packetBytes) 0
attr interpolationmode none
attr source packetDropReasonIsRetryLimitReached(packetDropped)
attr title "packet drop: retry limit reached, sum(packetBytes)"
scalar RplNetwork36.host[2].wlan[0].mac packetDropBackoffLimitReached:count 0
attr interpolationmode none
attr source packetDropReasonIsCongestion(packetDropped)
attr title "packet drop: backoff limit reached, count"
scalar RplNetwork36.host[2].wlan[0].mac packetDropBackoffLimitReached:sum(packetBytes) 0
attr interpolationmode none
attr source packetDropReasonIsCongestion(packetDropped)
attr title "packet drop: backoff limit reached, sum(packetBytes)"
scalar RplNetwork36.host[2].wlan[0].mac linkBroken:count 0
attr interpolationmode none
attr source linkBroken
attr title "link break, count"
scalar RplNetwork36.host[2].wlan[0].radio radioMode:count 266
attr interpolationmode sample-hold
attr source radioModeChanged
attr title "Radio mode, count"
scalar RplNetwork36.host[2].wlan[0].radio receptionState:count 1240
attr interpolationmode sample-hold
attr source receptionStateChanged
attr title "Radio reception state, count"
scalar RplNetwork36.host[2].wlan[0].radio transmissionState:count 532
attr interpolationmode sample-hold
attr source transmissionStateChanged
attr title "Radio transmission state, count"
statistic RplNetwork36.host[2].wlan[0].radio minSnir:histogram
field count 280
field mean 695.19341047144
field stddev 34.694407895905
field min 116.71831330042
field max 697.26679791649
field sum 194654.154932
field sqrsum 135658118.67066
attr source minimumSnir(packetSentToUpper)
attr title "Min SNIR, histogram"
bin	-inf	0
bin	110	1
bin	120	0
bin	130	0
bin	140	0
bin	150	0
bin	160	0
bin	170	0
bin	180	0
bin	190	0
bin	200	0
bin	210	0
bin	220	0
bin	230	0
bin	240	0
bin	250	0
bin	260	0
bin	270	0
bin	280	0
bin	290	0
bin	300	0
bin	310	0
bin	320	0
bin	330	0
bin	340	0
bin	350	0
bin	360	0
bin	370	0
bin	380	0
bin	390	0
bin	400	0
bin	410	0
bin	420	0
bin	430	0
bin	440	0
bin	450	0
bin	460	0
bin	470	0
bin	480	0
bin	490	0
bin	500	0
bin	510	0
bin	520	0
bin	530	0
bin	540	0
bin	550	0
bin	560	0
bin	570	0
bin	580	0
bin	590	0
bin	600	0
bin	610	0
bin	620	0
bin	630	0
bin	640	0
bin	650	0
bin	660	0
bin	670	0
bin	680	0
bin	690	279
bin	700	0
statistic RplNetwork36.host[2].wlan[0].radio packetErrorRate:histogram
field count 280
field mean 0
field stddev 0
field min 0
field max 0
field sum 0
field sqrsum 0
attr source packetErrorRate(packetSentToUpper)
attr title "Packet error rate, histogram"
bin	-inf	0
bin	-0.5	0
bin	-0.48	0
bin	-0.46	0
bin	-0.44	0
bin	-0.42	0
bin	-0.4	0
bin	-0.38	0
bin	-0.36	0
bin	-0.34	0
bin	-0.32	0
bin	-0.3	0
bin	-0.28	0
bin	-0.26	0
bin	-0.24	0
bin	-0.22	0
bin	-0.2	0
bin	-0.18	0
bin	-0.16	0
bin	-0.14	0
bin	-0.12	0
bin	-0.1	0
bin	-0.08	0
bin	-0.06	0
bin	-0.04	0
bin	-0.02	0
bin	0	280
bin	0.02	0
bin	0.04	0
bin	0.06	0
bin	0.08	0
bin	0.1	0
bin	0.12	0
bin	0.14	0
bin	0.16	0
bin	0.18	0
bin	0.2	0
bin	0.22	0
bin	0.24	0
bin	0.26	0
bin	0.28	0
bin	0.3	0
bin	0.32	0
bin	0.34	0
bin	0.36	0
bin	0.38	0
bin	0.4	0
bin	0.42	0
bin	0.44	0
bin	0.46	0
bin	0.48	0
bin	0.5	0
statistic RplNetwork36.host[2].wlan[0].radio bitErrorRate:histogram
field count 280
field mean 0
field stddev 0
field min 0
field max 0
field sum 0
field sqrsum 0
attr source bitErrorRate(packetSentToUpper)
attr title "Bit error rate, histogram"
bin	-inf	0
bin	-0.5	0
bin	-0.48	0
bin	-0.46	0
bin	-0.44	0
bin	-0.42	0
bin	-0.4	0
bin	-0.38	0
bin	-0.36	0
bin	-0.34	0
bin	-0.32	0
bin	-0.3	0
bin	-0.28	0
bin	-0.26	0
bin	-0.24	0
bin	-0.22	0
bin	-0.2	0
bin	-0.18	0
bin	-0.16	0
bin	-0.14	0
bin	-0.12	0
bin	-0.1	0
bin	-0.08	0
bin	-0.06	0
bin	-0.04	0
bin	-0.02	0
bin	0	280
bin	0.02	0
bin	0.04	0
bin	0.06	0
bin	0.08	0
bin	0.1	0
bin	0.12	0
bin	0.14	0
bin	0.16	0
bin	0.18	0
bin	0.2	0
bin	0.22	0
bin	0.24	0
bin	0.26	0
bin	0.28	0
bin	0.3	0
bin	0.32	0
bin	0.34	0
bin	0.36	0
bin	0.38	0
bin	0.4	0
bin	0.42	0
bin	0.44	0
bin	0.46	0
bin	0.48	0
bin	0.5	0
statistic RplNetwork36.host[2].wlan[0].radio symbolErrorRate:histogram
field count 0
field mean -nan
field stddev -nan
field min -nan
field max -nan
field sum 0
field sqrsum 0
attr source symbolErrorRate(packetSentToUpper)
attr title "Symbol error rate, histogram"
bin	-inf	0
bin	0	0
bin	1	0
scalar RplNetwork36.host[2].ipv6.neighbourDiscovery startDad:count 0
attr title "DAD started, count"
scalar RplNetwork36.host[2].udp packetReceived:count 0
attr interpolationmode none
attr source packetReceived
attr title "packets received, count"
scalar RplNetwork36.host[2].udp packetReceived:sum(packetBytes) 0
attr interpolationmode none
attr source packetReceived
attr title "packets received, sum(packetBytes)"
scalar RplNetwork36.host[2].udp packetSent:count 58
attr interpolationmode none
attr source packetSent
attr title "packets sent, count"
scalar RplNetwork36.host[2].udp packetSent:sum(packetBytes) 3712
attr interpolationmode none
attr source packetSent
attr title "packets sent, sum(packetBytes)"
scalar RplNetwork36.host[2].udp passedUpPk:count 0
attr interpolationmode none
attr source packetSentToUpper
attr title "packets passed up, count"
scalar RplNetwork36.host[2].udp droppedPkWrongPort:count 0
attr interpolationmode none
attr source packetDropReasonIsNoPortFound(packetDropped)
attr title "packets dropped (wrong port), count"
scalar RplNetwork36.host[2].udp droppedPkBadChecksum:count 0
attr interpolationmode none
attr source packetDropReasonIsIncorrectlyReceived(packetDropped)
attr title "packets dropped (checksum error), count"
scalar RplNetwork36.host[2].app[0] "packets sent" 58
scalar RplNetwork36.host[2].app[0] "packets received" 0
scalar RplNetwork36.host[2].app[0] packetReceived:count 0
attr interpolationmode none
attr source packetReceived
attr title "packets received, count"
scalar RplNetwork36.host[2].app[0] packetReceived:sum(packetBytes) 0
attr interpolationmode none
attr source packetReceived
attr title "packets received, sum(packetBytes)"
statistic RplNetwork36.host[2].app[0] rcvdPkLifetime:stats
field count 0
field mean -nan
field stddev -nan
field min -nan
field max -nan
field sum 0
field sqrsum 0
attr interpolationmode none
attr source dataAge(packetReceived)
attr title "received packet lifetime, stats"
attr unit s
scalar RplNetwork36.host[2].app[0] packetSent:count 58
attr interpolationmode none
attr source packetSent
attr title "packets sent, count"
scalar RplNetwork36.host[2].app[0] packetSent:sum(packetBytes) 3248
attr interpolationmode none
attr source packetSent
attr title "packets sent, sum(packetBytes)"
scalar RplNetwork36.host[2].rpl rank 4
scalar RplNetwork36.host[2].rpl parentId 8
scalar RplNetwork36.host[2].rpl parentUnreachable:count 0
attr interpolationmode none
attr source parentUnreachable
attr title "Preferred parent unreachability detected, count"
scalar RplNetwork36.host[2].rpl rankUpdated:count 0
attr interpolationmode none
attr source rankUpdated
attr title "Rank is updated, count"
scalar RplNetwork36.host[2].rpl parentChanged:count 0
attr interpolationmode none
attr source parentChanged
attr title "Preferred parent has changed, count"
scalar RplNetwork36.host[2].rpl daoReceived:count 0
attr interpolationmode none
attr source daoReceived
attr title "DAO packets received, count"
scalar RplNetwork36.host[2].rpl dioReceived:count 10
attr interpolationmode none
attr source dioReceived
attr title "DIO packets received, count"
scalar RplNetwork36.host[3].energyStorage residualEnergyCapacity:last -7.1844541331927
attr interpolationmode linear
attr source residualEnergyCapacityChanged
attr title "Residual energy capacity, last"
scalar RplNetwork36.host[3].lo[0].lo rcvdPkFromHl:count 0
attr interpolationmode none
attr source packetReceivedFromUpper
attr title "packets received from higher layer, count"
scalar RplNetwork36.host[3].lo[0].lo rcvdPkFromHl:sum(packetBytes) 0
attr interpolationmode none
attr source packetReceivedFromUpper
attr title "packets received from higher layer, sum(packetBytes)"
scalar RplNetwork36.host[3].lo[0].lo passedUpPk:count 0
attr interpolationmode none
attr source packetSentToUpper
attr title "packets passed to higher layer, count"
scalar RplNetwork36.host[3].lo[0].lo passedUpPk:sum(packetBytes) 0
attr interpolationmode none
attr source packetSentToUpper
attr title "packets passed to higher layer, sum(packetBytes)"
scalar RplNetwork36.host[3].wlan[0].mac.queue packetPopped:count 75
attr interpolationmode none
attr title "packet popped, count"
scalar RplNetwork36.host[3].wlan[0].mac.queue packetPopped:sum(packetBytes) 8275
attr interpolationmode none
attr title "packet popped, sum(packetBytes)"
statistic RplNetwork36.host[3].wlan[0].mac.queue queueingTime:histogram
field count 75
field mean 0.0011477333333333
field stddev 0.00068731749092638
field min 0.000128
field max 0.002368
field sum 0.08608
field sqrsum 0.00013375488
attr interpolationmode none
attr source queueingTime(packetPopped)
attr title "queueing times, histogram"
attr unit s
bin	-inf	0
bin	0	0
bin	5e-05	0
bin	0.0001	10
bin	0.00015	0
bin	0.0002	0
bin	0.00025	0
bin	0.0003	0
bin	0.00035	0
bin	0.0004	11
bin	0.00045	0
bin	0.0005	0
bin	0.00055	0
bin	0.0006	0
bin	0.00065	0
bin	0.0007	0
bin	0.00075	10
bin	0.0008	0
bin	0.00085	0
bin	0.0009	0
bin	0.00095	0
bin	0.001	0
bin	0.00105	9
bin	0.0011	0
bin	0.00115	0
bin	0.0012	0
bin	0.00125	0
bin	0.0013	0
bin	0.00135	0
bin	0.0014	11
bin	0.00145	0
bin	0.0015	0
bin	0.00155	0
bin	0.0016	0
bin	0.00165	0
bin	0.0017	11
bin	0.00175	0
bin	0.0018	0
bin	0.00185	0
bin	0.0019	0
bin	0.00195	0
bin	0.002	9
bin	0.00205	0
bin	0.0021	0
bin	0.00215	0
bin	0.0022	0
bin	0.00225	0
bin	0.0023	0
bin	0.00235	4
bin	0.0024	0
bin	0.00245	0
bin	0.0025	0
bin	0.00255	0
bin	0.0026	0
bin	0.00265	0
bin	0.0027	0
bin	0.00275	0
bin	0.0028	0
bin	0.00285	0
bin	0.0029	0
bin	0.00295	0
scalar RplNetwork36.host[3].wlan[0].mac.queue queueLength:max 1
attr interpolationmode sample-hold
attr source "count(packetPushed) - count(packetPopped) - count(packetRemoved) - count(packetDropped)"
attr title "queue length, max"
scalar RplNetwork36.host[3].wlan[0].mac.queue queueLength:timeavg 2.4502425921028e-05
attr interpolationmode sample-hold
attr source "count(packetPushed) - count(packetPopped) - count(packetRemoved) - count(packetDropped)"
attr title "queue length, timeavg"
scalar RplNetwork36.host[3].wlan[0].mac.queue packetPushed:count 75
attr interpolationmode none
attr title "packet pushed, count"
scalar RplNetwork36.host[3].wlan[0].mac.queue packetPushed:sum(packetBytes) 8275
attr interpolationmode none
attr title "packet pushed, sum(packetBytes)"
scalar RplNetwork36.host[3].wlan[0].mac.queue packetDropQueueOverflow:count 0
attr interpolationmode none
attr source packetDropReasonIsQueueOverflow(packetDropped)
attr title "packet drops: queue overflow, count"
scalar RplNetwork36.host[3].wlan[0].mac.queue packetDropQueueOverflow:sum(packetBytes) 0
attr interpolationmode none
attr source packetDropReasonIsQueueOverflow(packetDropped)
attr title "packet drops: queue overflow, sum(packetBytes)"
scalar RplNetwork36.host[3].wlan[0].mac.queue packetRemoved:count 0
attr interpolationmode none
attr title "packets removed, count"
scalar RplNetwork36.host[3].wlan[0].mac.queue packetRemoved:sum(packetBytes) 0
attr interpolationmode none
attr title "packets removed, sum(packetBytes)"
scalar RplNetwork36.host[3].wlan[0].mac nbTxFrames 81
scalar RplNetwork36.host[3].wlan[0].mac nbRxFrames 54
scalar RplNetwork36.host[3].wlan[0].mac nbDroppedFrames 0
scalar RplNetwork36.host[3].wlan[0].mac nbMissedAcks 0
scalar RplNetwork36.host[3].wlan[0].mac nbRecvdAcks 59
scalar RplNetwork36.host[3].wlan[0].mac nbTxAcks 1
scalar RplNetwork36.host[3].wlan[0].mac nbDuplicates 0
scalar RplNetwork36.host[3].wlan[0].mac meanBackoff 0.001039012345679
scalar RplNetwork36.host[3].wlan[0].mac nbBackoffs 81
scalar RplNetwork36.host[3].wlan[0].mac backoffDurations 0.08416
scalar RplNetwork36.host[3].wlan[0].mac packetDropNotAddressToUs:count 522
attr interpolationmode none
attr source packetDropReasonIsNotAddressedToUs(packetDropped)
attr title "packet drop: not addressed to us, count"
scalar RplNetwork36.host[3].wlan[0].mac packetDropNotAddressToUs:sum(packetBytes) 46458
attr interpolationmode none
attr source packetDropReasonIsNotAddressedToUs(packetDropped)
attr title "packet drop: not addressed to us, sum(packetBytes)"
scalar RplNetwork36.host[3].wlan[0].mac packetDropIncorrectlyReceived:count 0
attr interpolationmode none
attr source packetDropReasonIsIncorrectlyReceived(packetDropped)
attr title "packet drop: incorrectly received, count"
scalar RplNetwork36.host[3].wlan[0].mac packetDropIncorrectlyReceived:sum(packetBytes) 0
attr interpolationmode none
attr source packetDropReasonIsIncorrectlyReceived(packetDropped)
attr title "packet drop: incorrectly received, sum(packetBytes)"
scalar RplNetwork36.host[3].wlan[0].mac packetDropQueueOverflow:count 0
attr interpolationmode none
attr source packetDropReasonIsQueueOverflow(packetDropped)
attr title "packet drop: queue overflow, count"
scalar RplNetwork36.host[3].wlan[0].mac packetDropQueueOverflow:sum(packetBytes) 0
attr interpolationmode none
attr source packetDropReasonIsQueueOverflow(packetDropped)
attr title "packet drop: queue overflow, sum(packetBytes)"
scalar RplNetwork36.host[3].wlan[0].mac packetDropRetryLimitReached:count 0
attr interpolationmode none
attr source packetDropReasonIsRetryLimitReached(packetDropped)
attr title "packet drop: retry limit reached, count"
scalar RplNetwork36.host[3].wlan[0].mac packetDropRetryLimitReached:sum(packetBytes) 0
attr interpolationmode none
attr source packetDropReasonIsRetryLimitReached(packetDropped)
attr title "packet drop: retry limit reached, sum(packetBytes)"
scalar RplNetwork36.host[3].wlan[0].mac packetDropBackoffLimitReached:count 0
attr interpolationmode none
attr source packetDropReasonIsCongestion(packetDropped)
attr title "packet drop: backoff limit reached, count"
scalar RplNetwork36.host[3].wlan[0].mac packetDropBackoffLimitReached:sum(packetBytes) 0
attr interpolationmode none
attr source packetDropReasonIsCongestion(packetDropped)
attr title "packet drop: backoff limit reached, sum(packetBytes)"
scalar RplNetwork36.host[3].wlan[0].mac linkBroken:count 0
attr interpolationmode none
attr source linkBroken
attr title "link break, count"
scalar RplNetwork36.host[3].wlan[0].radio radioMode:count 150
attr interpolationmode sample-hold
attr source radioModeChanged
attr title "Radio mode, count"
scalar RplNetwork36.host[3].wlan[0].radio receptionState:count 2274
attr interpolationmode sample-hold
attr source receptionStateChanged
attr title "Radio reception state, count"
scalar RplNetwork36.host[3].wlan[0].radio transmissionState:count 300
attr interpolationmode sample-hold
attr source transmissionStateChanged
attr title "Radio transmission state, count"
statistic RplNetwork36.host[3].wlan[0].radio minSnir:histogram
field count 626
field mean 696.20985830931
field stddev 26.444620522887
field min 35.622603815894
field max 697.26679791649
field sum 435827.37130163
field sqrsum 303864386.14285
attr source minimumSnir(packetSentToUpper)
attr title "Min SNIR, histogram"
bin	-inf	0
bin	30	1
bin	40	0
bin	50	0
bin	60	0
bin	70	0
bin	80	0
bin	90	0
bin	100	0
bin	110	0
bin	120	0
bin	130	0
bin	140	0
bin	150	0
bin	160	0
bin	170	0
bin	180	0
bin	190	0
bin	200	0
bin	210	0
bin	220	0
bin	230	0
bin	240	0
bin	250	0
bin	260	0
bin	270	0
bin	280	0
bin	290	0
bin	300	0
bin	310	0
bin	320	0
bin	330	0
bin	340	0
bin	350	0
bin	360	0
bin	370	0
bin	380	0
bin	390	0
bin	400	0
bin	410	0
bin	420	0
bin	430	0
bin	440	0
bin	450	0
bin	460	0
bin	470	0
bin	480	0
bin	490	0
bin	500	0
bin	510	0
bin	520	0
bin	530	0
bin	540	0
bin	550	0
bin	560	0
bin	570	0
bin	580	0
bin	590	0
bin	600	0
bin	610	0
bin	620	0
bin	630	0
bin	640	0
bin	650	0
bin	660	0
bin	670	0
bin	680	0
bin	690	625
bin	700	0
statistic RplNetwork36.host[3].wlan[0].radio packetErrorRate:histogram
field count 626
field mean 0
field stddev 0
field min 0
field max 0
field sum 0
field sqrsum 0
attr source packetErrorRate(packetSentToUpper)
attr title "Packet error rate, histogram"
bin	-inf	0
bin	-0.5	0
bin	-0.48	0
bin	-0.46	0
bin	-0.44	0
bin	-0.42	0
bin	-0.4	0
bin	-0.38	0
bin	-0.36	0
bin	-0.34	0
bin	-0.32	0
bin	-0.3	0
bin	-0.28	0
bin	-0.26	0
bin	-0.24	0
bin	-0.22	0
bin	-0.2	0
bin	-0.18	0
bin	-0.16	0
bin	-0.14	0
bin	-0.12	0
bin	-0.1	0
bin	-0.08	0
bin	-0.06	0
bin	-0.04	0
bin	-0.02	0
bin	0	626
bin	0.02	0
bin	0.04	0
bin	0.06	0
bin	0.08	0
bin	0.1	0
bin	0.12	0
bin	0.14	0
bin	0.16	0
bin	0.18	0
bin	0.2	0
bin	0.22	0
bin	0.24	0
bin	0.26	0
bin	0.28	0
bin	0.3	0
bin	0.32	0
bin	0.34	0
bin	0.36	0
bin	0.38	0
bin	0.4	0
bin	0.42	0
bin	0.44	0
bin	0.46	0
bin	0.48	0
bin	0.5	0
statistic RplNetwork36.host[3].wlan[0].radio bitErrorRate:histogram
field count 626
field mean 1.25453555845e-157
field stddev 3.1388469644155e-156
field min 0
field max 7.853392595897e-155
field sum 7.853392595897e-155
field sqrsum 6.1675775265291e-309
attr source bitErrorRate(packetSentToUpper)
attr title "Bit error rate, histogram"
bin	-inf	0
bin	-0.5	0
bin	-0.48	0
bin	-0.46	0
bin	-0.44	0
bin	-0.42	0
bin	-0.4	0
bin	-0.38	0
bin	-0.36	0
bin	-0.34	0
bin	-0.32	0
bin	-0.3	0
bin	-0.28	0
bin	-0.26	0
bin	-0.24	0
bin	-0.22	0
bin	-0.2	0
bin	-0.18	0
bin	-0.16	0
bin	-0.14	0
bin	-0.12	0
bin	-0.1	0
bin	-0.08	0
bin	-0.06	0
bin	-0.04	0
bin	-0.02	0
bin	0	626
bin	0.02	0
bin	0.04	0
bin	0.06	0
bin	0.08	0
bin	0.1	0
bin	0.12	0
bin	0.14	0
bin	0.16	0
bin	0.18	0
bin	0.2	0
bin	0.22	0
bin	0.24	0
bin	0.26	0
bin	0.28	0
bin	0.3	0
bin	0.32	0
bin	0.34	0
bin	0.36	0
bin	0.38	0
bin	0.4	0
bin	0.42	0
bin	0.44	0
bin	0.46	0
bin	0.48	0
bin	0.5	0
statistic RplNetwork36.host[3].wlan[0].radio symbolErrorRate:histogram
field count 0
field mean -nan
field stddev -nan
field min -nan
field max -nan
field sum 0
field sqrsum 0
attr source symbolErrorRate(packetSentToUpper)
attr title "Symbol error rate, histogram"
bin	-inf	0
bin	0	0
bin	1	0
scalar RplNetwork36.host[3].ipv6.neighbourDiscovery startDad:count 0
attr title "DAD started, count"
scalar RplNetwork36.host[3].udp packetReceived:count 0
attr interpolationmode none
attr source packetReceived
attr title "packets received, count"
scalar RplNetwork36.host[3].udp packetReceived:sum(packetBytes) 0
attr interpolationmode none
attr source packetReceived
attr title "packets received, sum(packetBytes)"
scalar RplNetwork36.host[3].udp packetSent:count 58
attr interpolationmode none
attr source packetSent
attr title "packets sent, count"
scalar RplNetwork36.host[3].udp packetSent:sum(packetBytes) 3712
attr interpolationmode none
attr source packetSent
attr title "packets sent, sum(packetBytes)"
scalar RplNetwork36.host[3].udp passedUpPk:count 0
attr interpolationmode none
attr source packetSentToUpper
attr title "packets passed up, count"
scalar RplNetwork36.host[3].udp droppedPkWrongPort:count 0
attr interpolationmode none
attr source packetDropReasonIsNoPortFound(packetDropped)
attr title "packets dropped (wrong port), count"
scalar RplNetwork36.host[3].udp droppedPkBadChecksum:count 0
attr interpolationmode none
attr source packetDropReasonIsIncorrectlyReceived(packetDropped)
attr title "packets dropped (checksum error), count"
scalar RplNetwork36.host[3].app[0] "packets sent" 58
scalar RplNetwork36.host[3].app[0] "packets received" 0
scalar RplNetwork36.host[3].app[0] packetReceived:count 0
attr interpolationmode none
attr source packetReceived
attr title "packets received, count"
scalar RplNetwork36.host[3].app[0] packetReceived:sum(packetBytes) 0
attr interpolationmode none
attr source packetReceived
attr title "packets received, sum(packetBytes)"
statistic RplNetwork36.host[3].app[0] rcvdPkLifetime:stats
field count 0
field mean -nan
field stddev -nan
field min -nan
field max -nan
field sum 0
field sqrsum 0
attr interpolationmode none
attr source dataAge(packetReceived)
attr title "received packet lifetime, stats"
attr unit s
scalar RplNetwork36.host[3].app[0] packetSent:count 58
attr interpolationmode none
attr source packetSent
attr title "packets sent, count"
scalar RplNetwork36.host[3].app[0] packetSent:sum(packetBytes) 3248
attr interpolationmode none
attr source packetSent
attr title "packets sent, sum(packetBytes)"
scalar RplNetwork36.host[3].rpl rank 5
scalar RplNetwork36.host[3].rpl parentId 2
scalar RplNetwork36.host[3].rpl parentUnreachable:count 0
attr interpolationmode none
attr source parentUnreachable
attr title "Preferred parent unreachability detected, count"
scalar RplNetwork36.host[3].rpl rankUpdated:count 0
attr interpolationmode none
attr source rankUpdated
attr title "Rank is updated, count"
scalar RplNetwork36.host[3].rpl parentChanged:count 0
attr interpolationmode none
attr source parentChanged
attr title "Preferred parent has changed, count"
scalar RplNetwork36.host[3].rpl daoReceived:count 0
attr interpolationmode none
attr source daoReceived
attr title "DAO packets received, count"
scalar RplNetwork36.host[3].rpl dioReceived:count 13
attr interpolationmode none
attr source dioReceived
attr title "DIO packets received, count"
scalar RplNetwork36.host[4].energyStorage residualEnergyCapacity:last -7.2051786801623
attr interpolationmode linear
attr source residualEnergyCapacityChanged
attr title "Residual energy capacity, last"
scalar RplNetwork36.host[4].lo[0].lo rcvdPkFromHl:count 0
attr interpolationmode none
attr source packetReceivedFromUpper
attr title "packets received from higher layer, count"
scalar RplNetwork36.host[4].lo[0].lo rcvdPkFromHl:sum(packetBytes) 0
attr interpolationmode none
attr source packetReceivedFromUpper
attr title "packets received from higher layer, sum(packetBytes)"
scalar RplNetwork36.host[4].lo[0].lo passedUpPk:count 0
attr interpolationmode none
attr source packetSentToUpper
attr title "packets passed to higher layer, count"
scalar RplNetwork36.host[4].lo[0].lo passedUpPk:sum(packetBytes) 0
attr interpolationmode none
attr source packetSentToUpper
attr title "packets passed to higher layer, sum(packetBytes)"
scalar RplNetwork36.host[4].wlan[0].mac.queue packetPopped:count 305
attr interpolationmode none
attr title "packet popped, count"
scalar RplNetwork36.host[4].wlan[0].mac.queue packetPopped:sum(packetBytes) 34305
attr interpolationmode none
attr title "packet popped, sum(packetBytes)"
statistic RplNetwork36.host[4].wlan[0].mac.queue queueingTime:histogram
field count 305
field mean 0.003982580179777
field stddev 0.0031568307198985
field min 0.000128
field max 0.010080266852
field sum 1.214686954832
field sqrsum 0.0078671245699525
attr interpolationmode none
attr source queueingTime(packetPopped)
attr title "queueing times, histogram"
attr unit s
bin	-inf	0
bin	0	8
bin	0.0002	0
bin	0.0004	11
bin	0.0006	21
bin	0.0008	12
bin	0.001	6
bin	0.0012	20
bin	0.0014	10
bin	0.0016	25
bin	0.0018	13
bin	0.002	10
bin	0.0022	23
bin	0.0024	13
bin	0.0026	0
bin	0.0028	17
bin	0.003	0
bin	0.0032	0
bin	0.0034	0
bin	0.0036	0
bin	0.0038	0
bin	0.004	0
bin	0.0042	0
bin	0.0044	0
bin	0.0046	0
bin	0.0048	0
bin	0.005	0
bin	0.0052	0
bin	0.0054	0
bin	0.0056	0
bin	0.0058	2
bin	0.006	0
bin	0.0062	6
bin	0.0064	10
bin	0.0066	0
bin	0.0068	9
bin	0.007	0
bin	0.0072	10
bin	0.0074	10
bin	0.0076	0
bin	0.0078	20
bin	0.008	10
bin	0.0082	0
bin	0.0084	16
bin	0.0086	0
bin	0.0088	7
bin	0.009	4
bin	0.0092	0
bin	0.0094	8
bin	0.0096	3
bin	0.0098	0
bin	0.01	1
bin	0.0102	0
bin	0.0104	0
bin	0.0106	0
bin	0.0108	0
bin	0.011	0
bin	0.0112	0
bin	0.0114	0
bin	0.0116	0
bin	0.0118	0
scalar RplNetwork36.host[4].wlan[0].mac.queue queueLength:max 2
attr interpolationmode sample-hold
attr source "count(packetPushed) - count(packetPopped) - count(packetRemoved) - count(packetDropped)"
attr title "queue length, max"
[...]
attr interpolationmode sample-hold
attr source radioModeChanged
attr title "Radio mode, count"
scalar RplNetwork36.host[34].wlan[0].radio receptionState:count 1126
attr interpolationmode sample-hold
attr source receptionStateChanged
attr title "Radio reception state, count"
scalar RplNetwork36.host[34].wlan[0].radio transmissionState:count 296
attr interpolationmode sample-hold
attr source transmissionStateChanged
attr title "Radio transmission state, count"
statistic RplNetwork36.host[34].wlan[0].radio minSnir:histogram
field count 282
field mean 695.59900976626
field stddev 28.006925617935
field min 226.9505395486
field max 697.26679791649
field sum 196158.92075408
field sqrsum 136668364.02836
attr source minimumSnir(packetSentToUpper)
attr title "Min SNIR, histogram"
bin	-inf	0
bin	220	1
bin	230	0
bin	240	0
bin	250	0
bin	260	0
bin	270	0
bin	280	0
bin	290	0
bin	300	0
bin	310	0
bin	320	0
bin	330	0
bin	340	0
bin	350	0
bin	360	0
bin	370	0
bin	380	0
bin	390	0
bin	400	0
bin	410	0
bin	420	0
bin	430	0
bin	440	0
bin	450	0
bin	460	0
bin	470	0
bin	480	0
bin	490	0
bin	500	0
bin	510	0
bin	520	0
bin	530	0
bin	540	0
bin	550	0
bin	560	0
bin	570	0
bin	580	0
bin	590	0
bin	600	0
bin	610	0
bin	620	0
bin	630	0
bin	640	0
bin	650	0
bin	660	0
bin	670	0
bin	680	0
bin	690	281
bin	700	0
statistic RplNetwork36.host[34].wlan[0].radio packetErrorRate:histogram
field count 282
field mean 0
field stddev 0
field min 0
field max 0
field sum 0
field sqrsum 0
attr source packetErrorRate(packetSentToUpper)
attr title "Packet error rate, histogram"
bin	-inf	0
bin	-0.5	0
bin	-0.48	0
bin	-0.46	0
bin	-0.44	0
bin	-0.42	0
bin	-0.4	0
bin	-0.38	0
bin	-0.36	0
bin	-0.34	0
bin	-0.32	0
bin	-0.3	0
bin	-0.28	0
bin	-0.26	0
bin	-0.24	0
bin	-0.22	0
bin	-0.2	0
bin	-0.18	0
bin	-0.16	0
bin	-0.14	0
bin	-0.12	0
bin	-0.1	0
bin	-0.08	0
bin	-0.06	0
bin	-0.04	0
bin	-0.02	0
bin	0	282
bin	0.02	0
bin	0.04	0
bin	0.06	0
bin	0.08	0
bin	0.1	0
bin	0.12	0
bin	0.14	0
bin	0.16	0
bin	0.18	0
bin	0.2	0
bin	0.22	0
bin	0.24	0
bin	0.26	0
bin	0.28	0
bin	0.3	0
bin	0.32	0
bin	0.34	0
bin	0.36	0
bin	0.38	0
bin	0.4	0
bin	0.42	0
bin	0.44	0
bin	0.46	0
bin	0.48	0
bin	0.5	0
statistic RplNetwork36.host[34].wlan[0].radio bitErrorRate:histogram
field count 282
field mean 0
field stddev 0
field min 0
field max 0
field sum 0
field sqrsum 0
attr source bitErrorRate(packetSentToUpper)
attr title "Bit error rate, histogram"
bin	-inf	0
bin	-0.5	0
bin	-0.48	0
bin	-0.46	0
bin	-0.44	0
bin	-0.42	0
bin	-0.4	0
bin	-0.38	0
bin	-0.36	0
bin	-0.34	0
bin	-0.32	0
bin	-0.3	0
bin	-0.28	0
bin	-0.26	0
bin	-0.24	0
bin	-0.22	0
bin	-0.2	0
bin	-0.18	0
bin	-0.16	0
bin	-0.14	0
bin	-0.12	0
bin	-0.1	0
bin	-0.08	0
bin	-0.06	0
bin	-0.04	0
bin	-0.02	0
bin	0	282
bin	0.02	0
bin	0.04	0
bin	0.06	0
bin	0.08	0
bin	0.1	0
bin	0.12	0
bin	0.14	0
bin	0.16	0
bin	0.18	0
bin	0.2	0
bin	0.22	0
bin	0.24	0
bin	0.26	0
bin	0.28	0
bin	0.3	0
bin	0.32	0
bin	0.34	0
bin	0.36	0
bin	0.38	0
bin	0.4	0
bin	0.42	0
bin	0.44	0
bin	0.46	0
bin	0.48	0
bin	0.5	0
statistic RplNetwork36.host[34].wlan[0].radio symbolErrorRate:histogram
field count 0
field mean -nan
field stddev -nan
field min -nan
field max -nan
field sum 0
field sqrsum 0
attr source symbolErrorRate(packetSentToUpper)
attr title "Symbol error rate, histogram"
bin	-inf	0
bin	0	0
bin	1	0
scalar RplNetwork36.host[34].ipv6.neighbourDiscovery startDad:count 0
attr title "DAD started, count"
scalar RplNetwork36.host[34].udp packetReceived:count 0
attr interpolationmode none
attr source packetReceived
attr title "packets received, count"
scalar RplNetwork36.host[34].udp packetReceived:sum(packetBytes) 0
attr interpolationmode none
attr source packetReceived
attr title "packets received, sum(packetBytes)"
scalar RplNetwork36.host[34].udp packetSent:count 58
attr interpolationmode none
attr source packetSent
attr title "packets sent, count"
scalar RplNetwork36.host[34].udp packetSent:sum(packetBytes) 3712
attr interpolationmode none
attr source packetSent
attr title "packets sent, sum(packetBytes)"
scalar RplNetwork36.host[34].udp passedUpPk:count 0
attr interpolationmode none
attr source packetSentToUpper
attr title "packets passed up, count"
scalar RplNetwork36.host[34].udp droppedPkWrongPort:count 0
attr interpolationmode none
attr source packetDropReasonIsNoPortFound(packetDropped)
attr title "packets dropped (wrong port), count"
scalar RplNetwork36.host[34].udp droppedPkBadChecksum:count 0
attr interpolationmode none
attr source packetDropReasonIsIncorrectlyReceived(packetDropped)
attr title "packets dropped (checksum error), count"
scalar RplNetwork36.host[34].app[0] "packets sent" 58
scalar RplNetwork36.host[34].app[0] "packets received" 0
scalar RplNetwork36.host[34].app[0] packetReceived:count 0
attr interpolationmode none
attr source packetReceived
attr title "packets received, count"
scalar RplNetwork36.host[34].app[0] packetReceived:sum(packetBytes) 0
attr interpolationmode none
attr source packetReceived
attr title "packets received, sum(packetBytes)"
statistic RplNetwork36.host[34].app[0] rcvdPkLifetime:stats
field count 0
field mean -nan
field stddev -nan
field min -nan
field max -nan
field sum 0
field sqrsum 0
attr interpolationmode none
attr source dataAge(packetReceived)
attr title "received packet lifetime, stats"
attr unit s
scalar RplNetwork36.host[34].app[0] packetSent:count 58
attr interpolationmode none
attr source packetSent
attr title "packets sent, count"
scalar RplNetwork36.host[34].app[0] packetSent:sum(packetBytes) 3248
attr interpolationmode none
attr source packetSent
attr title "packets sent, sum(packetBytes)"
scalar RplNetwork36.host[34].rpl rank 5
scalar RplNetwork36.host[34].rpl parentId 33
scalar RplNetwork36.host[34].rpl parentUnreachable:count 0
attr interpolationmode none
attr source parentUnreachable
attr title "Preferred parent unreachability detected, count"
scalar RplNetwork36.host[34].rpl rankUpdated:count 0
attr interpolationmode none
attr source rankUpdated
attr title "Rank is updated, count"
scalar RplNetwork36.host[34].rpl parentChanged:count 0
attr interpolationmode none
attr source parentChanged
attr title "Preferred parent has changed, count"
scalar RplNetwork36.host[34].rpl daoReceived:count 0
attr interpolationmode none
attr source daoReceived
attr title "DAO packets received, count"
scalar RplNetwork36.host[34].rpl dioReceived:count 12
attr interpolationmode none
attr source dioReceived
attr title "DIO packets received, count"
scalar RplNetwork36.host[35].energyStorage residualEnergyCapacity:last -7.1834971314314
attr interpolationmode linear
attr source residualEnergyCapacityChanged
attr title "Residual energy capacity, last"
scalar RplNetwork36.host[35].lo[0].lo rcvdPkFromHl:count 0
attr interpolationmode none
attr source packetReceivedFromUpper
attr title "packets received from higher layer, count"
scalar RplNetwork36.host[35].lo[0].lo rcvdPkFromHl:sum(packetBytes) 0
attr interpolationmode none
attr source packetReceivedFromUpper
attr title "packets received from higher layer, sum(packetBytes)"
scalar RplNetwork36.host[35].lo[0].lo passedUpPk:count 0
attr interpolationmode none
attr source packetSentToUpper
attr title "packets passed to higher layer, count"
scalar RplNetwork36.host[35].lo[0].lo passedUpPk:sum(packetBytes) 0
attr interpolationmode none
attr source packetSentToUpper
attr title "packets passed to higher layer, sum(packetBytes)"
scalar RplNetwork36.host[35].wlan[0].mac.queue packetPopped:count 76
attr interpolationmode none
attr title "packet popped, count"
scalar RplNetwork36.host[35].wlan[0].mac.queue packetPopped:sum(packetBytes) 8348
attr interpolationmode none
attr title "packet popped, sum(packetBytes)"
statistic RplNetwork36.host[35].wlan[0].mac.queue queueingTime:histogram
field count 76
field mean 0.0012143157894737
field stddev 0.00072798689018464
field min 0.000128
field max 0.002368
field sum 0.092288
field sqrsum 0.000151814144
attr interpolationmode none
attr source queueingTime(packetPopped)
attr title "queueing times, histogram"
attr unit s
bin	-inf	0
bin	0	0
bin	5e-05	0
bin	0.0001	10
bin	0.00015	0
bin	0.0002	0
bin	0.00025	0
bin	0.0003	0
bin	0.00035	0
bin	0.0004	9
bin	0.00045	0
bin	0.0005	0
bin	0.00055	0
bin	0.0006	0
bin	0.00065	0
bin	0.0007	0
bin	0.00075	10
bin	0.0008	0
bin	0.00085	0
bin	0.0009	0
bin	0.00095	0
bin	0.001	0
bin	0.00105	10
bin	0.0011	0
bin	0.00115	0
bin	0.0012	0
bin	0.00125	0
bin	0.0013	0
bin	0.00135	0
bin	0.0014	13
bin	0.00145	0
bin	0.0015	0
bin	0.00155	0
bin	0.0016	0
bin	0.00165	0
bin	0.0017	7
bin	0.00175	0
bin	0.0018	0
bin	0.00185	0
bin	0.0019	0
bin	0.00195	0
bin	0.002	7
bin	0.00205	0
bin	0.0021	0
bin	0.00215	0
bin	0.0022	0
bin	0.00225	0
bin	0.0023	0
bin	0.00235	10
bin	0.0024	0
bin	0.00245	0
bin	0.0025	0
bin	0.00255	0
bin	0.0026	0
bin	0.00265	0
bin	0.0027	0
bin	0.00275	0
bin	0.0028	0
bin	0.00285	0
bin	0.0029	0
bin	0.00295	0
scalar RplNetwork36.host[35].wlan[0].mac.queue queueLength:max 1
attr interpolationmode sample-hold
attr source "count(packetPushed) - count(packetPopped) - count(packetRemoved) - count(packetDropped)"
attr title "queue length, max"
scalar RplNetwork36.host[35].wlan[0].mac.queue queueLength:timeavg 2.6322338559289e-05
attr interpolationmode sample-hold
attr source "count(packetPushed) - count(packetPopped) - count(packetRemoved) - count(packetDropped)"
attr title "queue length, timeavg"
scalar RplNetwork36.host[35].wlan[0].mac.queue packetPushed:count 76
attr interpolationmode none
attr title "packet pushed, count"
scalar RplNetwork36.host[35].wlan[0].mac.queue packetPushed:sum(packetBytes) 8348
attr interpolationmode none
attr title "packet pushed, sum(packetBytes)"
scalar RplNetwork36.host[35].wlan[0].mac.queue packetDropQueueOverflow:count 0
attr interpolationmode none
attr source packetDropReasonIsQueueOverflow(packetDropped)
attr title "packet drops: queue overflow, count"
scalar RplNetwork36.host[35].wlan[0].mac.queue packetDropQueueOverflow:sum(packetBytes) 0
attr interpolationmode none
attr source packetDropReasonIsQueueOverflow(packetDropped)
attr title "packet drops: queue overflow, sum(packetBytes)"
scalar RplNetwork36.host[35].wlan[0].mac.queue packetRemoved:count 0
attr interpolationmode none
attr title "packets removed, count"
scalar RplNetwork36.host[35].wlan[0].mac.queue packetRemoved:sum(packetBytes) 0
attr interpolationmode none
attr title "packets removed, sum(packetBytes)"
scalar RplNetwork36.host[35].wlan[0].mac nbTxFrames 82
scalar RplNetwork36.host[35].wlan[0].mac nbRxFrames 42
scalar RplNetwork36.host[35].wlan[0].mac nbDroppedFrames 0
scalar RplNetwork36.host[35].wlan[0].mac nbMissedAcks 0
scalar RplNetwork36.host[35].wlan[0].mac nbRecvdAcks 59
scalar RplNetwork36.host[35].wlan[0].mac nbTxAcks 1
scalar RplNetwork36.host[35].wlan[0].mac nbDuplicates 0
scalar RplNetwork36.host[35].wlan[0].mac meanBackoff 0.0010614634146341
scalar RplNetwork36.host[35].wlan[0].mac nbBackoffs 82
scalar RplNetwork36.host[35].wlan[0].mac backoffDurations 0.08704
scalar RplNetwork36.host[35].wlan[0].mac packetDropNotAddressToUs:count 117
attr interpolationmode none
attr source packetDropReasonIsNotAddressedToUs(packetDropped)
attr title "packet drop: not addressed to us, count"
scalar RplNetwork36.host[35].wlan[0].mac packetDropNotAddressToUs:sum(packetBytes) 13221
attr interpolationmode none
attr source packetDropReasonIsNotAddressedToUs(packetDropped)
attr title "packet drop: not addressed to us, sum(packetBytes)"
scalar RplNetwork36.host[35].wlan[0].mac packetDropIncorrectlyReceived:count 0
attr interpolationmode none
attr source packetDropReasonIsIncorrectlyReceived(packetDropped)
attr title "packet drop: incorrectly received, count"
scalar RplNetwork36.host[35].wlan[0].mac packetDropIncorrectlyReceived:sum(packetBytes) 0
attr interpolationmode none
attr source packetDropReasonIsIncorrectlyReceived(packetDropped)
attr title "packet drop: incorrectly received, sum(packetBytes)"
scalar RplNetwork36.host[35].wlan[0].mac packetDropQueueOverflow:count 0
attr interpolationmode none
attr source packetDropReasonIsQueueOverflow(packetDropped)
attr title "packet drop: queue overflow, count"
scalar RplNetwork36.host[35].wlan[0].mac packetDropQueueOverflow:sum(packetBytes) 0
attr interpolationmode none
attr source packetDropReasonIsQueueOverflow(packetDropped)
attr title "packet drop: queue overflow, sum(packetBytes)"
scalar RplNetwork36.host[35].wlan[0].mac packetDropRetryLimitReached:count 0
attr interpolationmode none
attr source packetDropReasonIsRetryLimitReached(packetDropped)
attr title "packet drop: retry limit reached, count"
scalar RplNetwork36.host[35].wlan[0].mac packetDropRetryLimitReached:sum(packetBytes) 0
attr interpolationmode none
attr source packetDropReasonIsRetryLimitReached(packetDropped)
attr title "packet drop: retry limit reached, sum(packetBytes)"
scalar RplNetwork36.host[35].wlan[0].mac packetDropBackoffLimitReached:count 0
attr interpolationmode none
attr source packetDropReasonIsCongestion(packetDropped)
attr title "packet drop: backoff limit reached, count"
scalar RplNetwork36.host[35].wlan[0].mac packetDropBackoffLimitReached:sum(packetBytes) 0
attr interpolationmode none
attr source packetDropReasonIsCongestion(packetDropped)
attr title "packet drop: backoff limit reached, sum(packetBytes)"
scalar RplNetwork36.host[35].wlan[0].mac linkBroken:count 0
attr interpolationmode none
attr source linkBroken
attr title "link break, count"
scalar RplNetwork36.host[35].wlan[0].radio radioMode:count 152
attr interpolationmode sample-hold
attr source radioModeChanged
attr title "Radio mode, count"
scalar RplNetwork36.host[35].wlan[0].radio receptionState:count 712
attr interpolationmode sample-hold
attr source receptionStateChanged
attr title "Radio reception state, count"
scalar RplNetwork36.host[35].wlan[0].radio transmissionState:count 304
attr interpolationmode sample-hold
attr source transmissionStateChanged
attr title "Radio transmission state, count"
statistic RplNetwork36.host[35].wlan[0].radio minSnir:histogram
field count 207
field mean 697.2667979165
field stddev 0
field min 697.26679791649
field max 697.26679791649
field sum 144334.22716871
field sqrsum 100639464.40768
attr source minimumSnir(packetSentToUpper)
attr title "Min SNIR, histogram"
bin	-inf	0
bin	696.76	0
bin	696.78	0
bin	696.8	0
bin	696.82	0
bin	696.84	0
bin	696.86	0
bin	696.88	0
bin	696.9	0
bin	696.92	0
bin	696.94	0
bin	696.96	0
bin	696.98	0
bin	697	0
bin	697.02	0
bin	697.04	0
bin	697.06	0
bin	697.08	0
bin	697.1	0
bin	697.12	0
bin	697.14	0
bin	697.16	0
bin	697.18	0
bin	697.2	0
bin	697.22	0
bin	697.24	0
bin	697.26	207
bin	697.28	0
bin	697.3	0
bin	697.32	0
bin	697.34	0
bin	697.36	0
bin	697.38	0
bin	697.4	0
bin	697.42	0
bin	697.44	0
bin	697.46	0
bin	697.48	0
bin	697.5	0
bin	697.52	0
bin	697.54	0
bin	697.56	0
bin	697.58	0
bin	697.6	0
bin	697.62	0
bin	697.64	0
bin	697.66	0
bin	697.68	0
bin	697.7	0
bin	697.72	0
bin	697.74	0
bin	697.76	0
bin	697.78	0
statistic RplNetwork36.host[35].wlan[0].radio packetErrorRate:histogram
field count 207
field mean 0
field stddev 0
field min 0
field max 0
field sum 0
field sqrsum 0
attr source packetErrorRate(packetSentToUpper)
attr title "Packet error rate, histogram"
bin	-inf	0
bin	-0.5	0
bin	-0.48	0
bin	-0.46	0
bin	-0.44	0
bin	-0.42	0
bin	-0.4	0
bin	-0.38	0
bin	-0.36	0
bin	-0.34	0
bin	-0.32	0
bin	-0.3	0
bin	-0.28	0
bin	-0.26	0
bin	-0.24	0
bin	-0.22	0
bin	-0.2	0
bin	-0.18	0
bin	-0.16	0
bin	-0.14	0
bin	-0.12	0
bin	-0.1	0
bin	-0.08	0
bin	-0.06	0
bin	-0.04	0
bin	-0.02	0
bin	0	207
bin	0.02	0
bin	0.04	0
bin	0.06	0
bin	0.08	0
bin	0.1	0
bin	0.12	0
bin	0.14	0
bin	0.16	0
bin	0.18	0
bin	0.2	0
bin	0.22	0
bin	0.24	0
bin	0.26	0
bin	0.28	0
bin	0.3	0
bin	0.32	0
bin	0.34	0
bin	0.36	0
bin	0.38	0
bin	0.4	0
bin	0.42	0
bin	0.44	0
bin	0.46	0
bin	0.48	0
bin	0.5	0
statistic RplNetwork36.host[35].wlan[0].radio bitErrorRate:histogram
field count 207
field mean 0
field stddev 0
field min 0
field max 0
field sum 0
field sqrsum 0
attr source bitErrorRate(packetSentToUpper)
attr title "Bit error rate, histogram"
bin	-inf	0
bin	-0.5	0
bin	-0.48	0
bin	-0.46	0
bin	-0.44	0
bin	-0.42	0
bin	-0.4	0
bin	-0.38	0
bin	-0.36	0
bin	-0.34	0
bin	-0.32	0
bin	-0.3	0
bin	-0.28	0
bin	-0.26	0
bin	-0.24	0
bin	-0.22	0
bin	-0.2	0
bin	-0.18	0
bin	-0.16	0
bin	-0.14	0
bin	-0.12	0
bin	-0.1	0
bin	-0.08	0
bin	-0.06	0
bin	-0.04	0
bin	-0.02	0
bin	0	207
bin	0.02	0
bin	0.04	0
bin	0.06	0
bin	0.08	0
bin	0.1	0
bin	0.12	0
bin	0.14	0
bin	0.16	0
bin	0.18	0
bin	0.2	0
bin	0.22	0
bin	0.24	0
bin	0.26	0
bin	0.28	0
bin	0.3	0
bin	0.32	0
bin	0.34	0
bin	0.36	0
bin	0.38	0
bin	0.4	0
bin	0.42	0
bin	0.44	0
bin	0.46	0
bin	0.48	0
bin	0.5	0
statistic RplNetwork36.host[35].wlan[0].radio symbolErrorRate:histogram
field count 0
field mean -nan
field stddev -nan
field min -nan
field max -nan
field sum 0
field sqrsum 0
attr source symbolErrorRate(packetSentToUpper)
attr title "Symbol error rate, histogram"
bin	-inf	0
bin	0	0
bin	1	0
scalar RplNetwork36.host[35].ipv6.neighbourDiscovery startDad:count 0
attr title "DAD started, count"
scalar RplNetwork36.host[35].udp packetReceived:count 0
attr interpolationmode none
attr source packetReceived
attr title "packets received, count"
scalar RplNetwork36.host[35].udp packetReceived:sum(packetBytes) 0
attr interpolationmode none
attr source packetReceived
attr title "packets received, sum(packetBytes)"
scalar RplNetwork36.host[35].udp packetSent:count 58
attr interpolationmode none
attr source packetSent
attr title "packets sent, count"
scalar RplNetwork36.host[35].udp packetSent:sum(packetBytes) 3712
attr interpolationmode none
attr source packetSent
attr title "packets sent, sum(packetBytes)"
scalar RplNetwork36.host[35].udp passedUpPk:count 0
attr interpolationmode none
attr source packetSentToUpper
attr title "packets passed up, count"
scalar RplNetwork36.host[35].udp droppedPkWrongPort:count 0
attr interpolationmode none
attr source packetDropReasonIsNoPortFound(packetDropped)
attr title "packets dropped (wrong port), count"
scalar RplNetwork36.host[35].udp droppedPkBadChecksum:count 0
attr interpolationmode none
attr source packetDropReasonIsIncorrectlyReceived(packetDropped)
attr title "packets dropped (checksum error), count"
scalar RplNetwork36.host[35].app[0] "packets sent" 58
scalar RplNetwork36.host[35].app[0] "packets received" 0
scalar RplNetwork36.host[35].app[0] packetReceived:count 0
attr interpolationmode none
attr source packetReceived
attr title "packets received, count"
scalar RplNetwork36.host[35].app[0] packetReceived:sum(packetBytes) 0
attr interpolationmode none
attr source packetReceived
attr title "packets received, sum(packetBytes)"
statistic RplNetwork36.host[35].app[0] rcvdPkLifetime:stats
field count 0
field mean -nan
field stddev -nan
field min -nan
field max -nan
field sum 0
field sqrsum 0
attr interpolationmode none
attr source dataAge(packetReceived)
attr title "received packet lifetime, stats"
attr unit s
scalar RplNetwork36.host[35].app[0] packetSent:count 58
attr interpolationmode none
attr source packetSent
attr title "packets sent, count"
scalar RplNetwork36.host[35].app[0] packetSent:sum(packetBytes) 3248
attr interpolationmode none
attr source packetSent
attr title "packets sent, sum(packetBytes)"
scalar RplNetwork36.host[35].rpl rank 6
scalar RplNetwork36.host[35].rpl parentId 29
scalar RplNetwork36.host[35].rpl parentUnreachable:count 0
attr interpolationmode none
attr source parentUnreachable
attr title "Preferred parent unreachability detected, count"
scalar RplNetwork36.host[35].rpl rankUpdated:count 0
attr interpolationmode none
attr source rankUpdated
attr title "Rank is updated, count"
scalar RplNetwork36.host[35].rpl parentChanged:count 0
attr interpolationmode none
attr source parentChanged
attr title "Preferred parent has changed, count"
scalar RplNetwork36.host[35].rpl daoReceived:count 0
attr interpolationmode none
attr source daoReceived
attr title "DAO packets received, count"
scalar RplNetwork36.host[35].rpl dioReceived:count 9
attr interpolationmode none
attr source dioReceived
attr title "DIO packets received, count"

