version 2
run _MP2P_Normal_36-0-20260522-13:25:47-94531
attr configname _MP2P_Normal_36
attr datetime 20260522-13:25:47
attr experiment _MP2P_Normal_36
attr inifile omnetpp_RPL_MP2P_36.ini
attr iterationvars ""
attr iterationvarsf ""
attr measurement ""
attr network RplNetwork36
attr processid 94531
attr repetition 0
attr replication #0
attr resultdir results
attr runnumber 0
attr seedset 0
param **.host[*].numApps 1
param **.host[*].app[0].typename "\"UdpBasicApp\""
param **.host[*].app[0].destAddresses "\"sink[0]\""
param **.host[*].app[0].destPort 1000
param **.host[*].app[0].messageLength 56B
param **.host[*].app[0].sendInterval 55s
param **.host[*].app[0].startTime uniform(0s,90s)
param **.sink[*].numApps 1
param **.sink[*].app[0].typename "\"UdpSink\""
param **.sink[*].app[0].localPort 1000
param **.host[*].app[0].recordStats true
param **.sink[*].app[0].recordStats true
param **.host[*].energyStorage.typename "\"IdealEpEnergyStorage\""
param **.host[*].energyStorage.nominalCapacity 1000J
param **.host[*].energyStorage.initialCapacity 1000J
param **.host[*].wlan[*].radio.energyConsumer.typename "\"StateBasedEpEnergyConsumer\""
param **.numNodes 36
param **.hasIpv6 true
param **.hasIpv4 false
param **.mtu 1500B
param **.neighbourDiscovery.raEnabled false
param **.neighbourDiscovery.addRandomDelays true
param **.neighbourDiscovery.skipDad true
param **.radioMedium.typename "\"Ieee802154NarrowbandDimensionalRadioMedium\""
param **.radio.typename "\"Ieee802154NarrowbandDimensionalRadio\""
param **.radioMedium.backgroundNoise.power -110dBm
param **.radioMedium.attenuation.typename "\"LogNormalShadowing\""
param **.radioMedium.attenuation.pathLossExponent 3.5
param **.radioMedium.attenuation.sigma 6.0
param **.wlan[*].typename "\"Ieee802154NarrowbandInterface\""
param **.wlan[*].mac.typename "\"Ieee802154Mac\""
param **.wlan[0].radio.transmitter.bitrate 250kbps
param **.wlan[0].radio.receiver.sensitivity -85dBm
param **.wlan[0].radio.transmitter.power 1mW
param **.sink[*].rpl.isRoot true
param **.sink[*].rpl.storing true
param **.rpl.numDaoRetransmitAttempts 10
param **.rpl.daoEnabled true
param **.rpl.poisoning false
param **.rpl.useBackupAsPreferred false
param **.rpl.networkProtocolModule "\"^.ipv6.ipv6\""
param **.rpl.routingTableModule "\"^.ipv6.routingTable\""
param **.rpl.drawConnectors true
param **.numSinks 1
param **.sensor[*].mobility.typename "\"StationaryMobility\""
param **.sink[*].mobility.typename "\"StationaryMobility\""
param **.mobility.constraintAreaMinX 0m
param **.mobility.constraintAreaMinY 0m
param **.mobility.constraintAreaMaxX 500m
param **.mobility.constraintAreaMaxY 500m
param *.sink[*].mobility.initialZ 0m
param *.host[*].mobility.typename "\"StationaryMobility\""
param *.host[*].mobility.initFromDisplayString false
param *.host[*].mobility.initialZ 0m
param *.sink[0].mobility.initialX 140m
param *.sink[0].mobility.initialY 120m
param *.host[0].mobility.initialX 40m
param *.host[0].mobility.initialY 0m
param *.host[1].mobility.initialX 80m
param *.host[1].mobility.initialY 0m
param *.host[2].mobility.initialX 120m
param *.host[2].mobility.initialY 0m
param *.host[3].mobility.initialX 160m
param *.host[3].mobility.initialY 0m
param *.host[4].mobility.initialX 200m
param *.host[4].mobility.initialY 0m
param *.host[5].mobility.initialX 240m
param *.host[5].mobility.initialY 0m
param *.host[6].mobility.initialX 40m
param *.host[6].mobility.initialY 40m
param *.host[7].mobility.initialX 80m
param *.host[7].mobility.initialY 40m
param *.host[8].mobility.initialX 120m
param *.host[8].mobility.initialY 40m
param *.host[9].mobility.initialX 160m
param *.host[9].mobility.initialY 40m
param *.host[10].mobility.initialX 200m
param *.host[10].mobility.initialY 40m
param *.host[11].mobility.initialX 240m
param *.host[11].mobility.initialY 40m
param *.host[12].mobility.initialX 40m
param *.host[12].mobility.initialY 80m
param *.host[13].mobility.initialX 80m
param *.host[13].mobility.initialY 80m
param *.host[14].mobility.initialX 120m
param *.host[14].mobility.initialY 80m
param *.host[15].mobility.initialX 160m
param *.host[15].mobility.initialY 80m
param *.host[16].mobility.initialX 200m
param *.host[16].mobility.initialY 80m
param *.host[17].mobility.initialX 240m
param *.host[17].mobility.initialY 80m
param *.host[18].mobility.initialX 40m
param *.host[18].mobility.initialY 120m
param *.host[19].mobility.initialX 80m
param *.host[19].mobility.initialY 120m
param *.host[21].mobility.initialX 160m
param *.host[21].mobility.initialY 120m
param *.host[22].mobility.initialX 200m
param *.host[22].mobility.initialY 120m
param *.host[23].mobility.initialX 240m
param *.host[23].mobility.initialY 120m
param *.host[24].mobility.initialX 40m
param *.host[24].mobility.initialY 160m
param *.host[25].mobility.initialX 80m
param *.host[25].mobility.initialY 160m
param *.host[26].mobility.initialX 120m
param *.host[26].mobility.initialY 160m
param *.host[27].mobility.initialX 160m
param *.host[27].mobility.initialY 160m
param *.host[28].mobility.initialX 200m
param *.host[28].mobility.initialY 160m
param *.host[29].mobility.initialX 240m
param *.host[29].mobility.initialY 160m
param *.host[30].mobility.initialX 40m
param *.host[30].mobility.initialY 200m
param *.host[31].mobility.initialX 80m
param *.host[31].mobility.initialY 200m
param *.host[32].mobility.initialX 120m
param *.host[32].mobility.initialY 200m
param *.host[33].mobility.initialX 160m
param *.host[33].mobility.initialY 200m
param *.host[34].mobility.initialX 200m
param *.host[34].mobility.initialY 200m
param *.host[35].mobility.initialX 240m
param *.host[35].mobility.initialY 200m
param **.host[*].numApps 1
param **.host[*].app[0].typename "\"UdpBasicApp\""
param **.host[*].app[0].destAddresses "\"sink[0]\""
param **.host[*].app[0].destPort 1000
param **.host[*].app[0].messageLength 56B
param **.host[*].app[0].sendInterval 55s
param **.host[*].app[0].startTime uniform(0s,90s)
param **.host[*].app[0].stopTime 3550s
param **.sink[*].numApps 1
param **.sink[*].app[0].typename "\"UdpSink\""
param **.sink[*].app[0].localPort 1000
param **.host[*].energyStorage.typename "\"IdealEpEnergyStorage\""
param **.host[*].energyStorage.nominalCapacity 1000J
param **.host[*].energyStorage.initialCapacity 1000J
param **.host[*].wlan[*].radio.energyConsumer.typename "\"StateBasedEpEnergyConsumer\""
param **.Attack[*].energyStorage.typename "\"IdealEpEnergyStorage\""
param **.Attack[*].energyStorage.nominalCapacity 1000J
param **.Attack[*].energyStorage.initialCapacity 1000J
param **.Attack[*].wlan[*].radio.energyConsumer.typename "\"StateBasedEpEnergyConsumer\""
param *.visualizer.dataLinkVisualizer[*].displayLinks true
param *.visualizer.physicalLinkVisualizer[*].displayLinks true
param *.visualizer.mediumVisualizer.displayCommunicationRanges true
param *.visualizer.networkRouteVisualizer.displayRoutes true
param *.visualizer.*.numDataLinkVisualizers 4
param *.visualizer.*.dataLinkVisualizer[*].displayLinks true
param *.visualizer.*.dataLinkVisualizer[*].activityLevel "\"peer\""
param *.visualizer.*.dataLinkVisualizer[0].packetFilter "\"UDP*\""
param *.visualizer.*.dataLinkVisualizer[0].*Color "\"blue\""
param *.visualizer.*.dataLinkVisualizer[1].packetFilter "\"DIO* or DIS* or DAO*\""
param *.visualizer.*.dataLinkVisualizer[1].*Color "\"green\""
param *.visualizer.*.dataLinkVisualizer[2].packetFilter "\"RERR* or ICMP*\""
param *.visualizer.*.dataLinkVisualizer[2].*Color "\"red\""
param *.visualizer.*.dataLinkVisualizer[3].packetFilter "\"UDP*\""
param *.visualizer.*.dataLinkVisualizer[3].*Color "\"orange\""
param **.app[*].packetSent:count.record true
param **.app[*].packetReceived:count.record true
param **.host[*].app[0].recordStats true
param **.sink[*].app[0].recordStats true
param **.endToEndDelay:vector.record true
param **.endToEndDelay:stats.record true
param **.throughput:vector.record true
param **.throughput:stats.record true

scalar RplNetwork36.radioMedium.propagation "Arrival computation count" 202788
scalar RplNetwork36.radioMedium "transmission count" 5633
scalar RplNetwork36.radioMedium "signal send count" 202788
scalar RplNetwork36.radioMedium "reception computation count" 202788
scalar RplNetwork36.radioMedium "interference computation count" 613795
scalar RplNetwork36.radioMedium "reception decision computation count" 19770
scalar RplNetwork36.radioMedium "listening decision computation count" 391262
scalar RplNetwork36.radioMedium "reception cache hit" 76.767754301027
attr unit %
scalar RplNetwork36.radioMedium "interference cache hit" 66.666666666667
attr unit %
scalar RplNetwork36.radioMedium "noise cache hit" 0
attr unit %
scalar RplNetwork36.radioMedium "snir cache hit" 50
attr unit %
scalar RplNetwork36.radioMedium "reception decision cache hit" 50
attr unit %
scalar RplNetwork36.radioMedium "reception result cache hit" 0
attr unit %
scalar RplNetwork36.sink[0].lo[0].lo rcvdPkFromHl:count 0
attr interpolationmode none
attr source packetReceivedFromUpper
attr title "packets received from higher layer, count"
scalar RplNetwork36.sink[0].lo[0].lo rcvdPkFromHl:sum(packetBytes) 0
attr interpolationmode none
attr source packetReceivedFromUpper
attr title "packets received from higher layer, sum(packetBytes)"
scalar RplNetwork36.sink[0].lo[0].lo passedUpPk:count 0
attr interpolationmode none
attr source packetSentToUpper
attr title "packets passed to higher layer, count"
scalar RplNetwork36.sink[0].lo[0].lo passedUpPk:sum(packetBytes) 0
attr interpolationmode none
attr source packetSentToUpper
attr title "packets passed to higher layer, sum(packetBytes)"
scalar RplNetwork36.sink[0].wlan[0].mac.queue packetPopped:count 19
attr interpolationmode none
attr title "packet popped, count"
scalar RplNetwork36.sink[0].wlan[0].mac.queue packetPopped:sum(packetBytes) 1907
attr interpolationmode none
attr title "packet popped, sum(packetBytes)"
statistic RplNetwork36.sink[0].wlan[0].mac.queue queueingTime:histogram
field count 19
field mean 0.0012732631578947
field stddev 0.0007861252969191
field min 0.000128
field max 0.002368
field sum 0.024192
field sqrsum 4.1926656e-05
attr interpolationmode none
attr source queueingTime(packetPopped)
attr title "queueing times, histogram"
attr unit s
bin	-inf	0
bin	0	0
bin	5e-05	0
bin	0.0001	2
bin	0.00015	0
bin	0.0002	0
bin	0.00025	0
bin	0.0003	0
bin	0.00035	0
bin	0.0004	2
bin	0.00045	0
bin	0.0005	0
bin	0.00055	0
bin	0.0006	0
bin	0.00065	0
bin	0.0007	0
bin	0.00075	4
bin	0.0008	0
bin	0.00085	0
bin	0.0009	0
bin	0.00095	0
bin	0.001	0
bin	0.00105	2
bin	0.0011	0
bin	0.00115	0
bin	0.0012	0
bin	0.00125	0
bin	0.0013	0
bin	0.00135	0
bin	0.0014	3
bin	0.00145	0
bin	0.0015	0
bin	0.00155	0
bin	0.0016	0
bin	0.00165	0
bin	0.0017	0
bin	0.00175	0
bin	0.0018	0
bin	0.00185	0
bin	0.0019	0
bin	0.00195	0
bin	0.002	2
bin	0.00205	0
bin	0.0021	0
bin	0.00215	0
bin	0.0022	0
bin	0.00225	0
bin	0.0023	0
bin	0.00235	4
bin	0.0024	0
bin	0.00245	0
bin	0.0025	0
bin	0.00255	0
bin	0.0026	0
bin	0.00265	0
bin	0.0027	0
bin	0.00275	0
bin	0.0028	0
bin	0.00285	0
bin	0.0029	0
bin	0.00295	0
scalar RplNetwork36.sink[0].wlan[0].mac.queue queueLength:max 1
attr interpolationmode sample-hold
attr source "count(packetPushed) - count(packetPopped) - count(packetRemoved) - count(packetDropped)"
attr title "queue length, max"
scalar RplNetwork36.sink[0].wlan[0].mac.queue queueLength:timeavg 6.8912673973613e-06
attr interpolationmode sample-hold
attr source "count(packetPushed) - count(packetPopped) - count(packetRemoved) - count(packetDropped)"
attr title "queue length, timeavg"
scalar RplNetwork36.sink[0].wlan[0].mac.queue packetPushed:count 19
attr interpolationmode none
attr title "packet pushed, count"
scalar RplNetwork36.sink[0].wlan[0].mac.queue packetPushed:sum(packetBytes) 1907
attr interpolationmode none
attr title "packet pushed, sum(packetBytes)"
scalar RplNetwork36.sink[0].wlan[0].mac.queue packetDropQueueOverflow:count 0
attr interpolationmode none
attr source packetDropReasonIsQueueOverflow(packetDropped)
attr title "packet drops: queue overflow, count"
scalar RplNetwork36.sink[0].wlan[0].mac.queue packetDropQueueOverflow:sum(packetBytes) 0
attr interpolationmode none
attr source packetDropReasonIsQueueOverflow(packetDropped)
attr title "packet drops: queue overflow, sum(packetBytes)"
scalar RplNetwork36.sink[0].wlan[0].mac.queue packetRemoved:count 0
attr interpolationmode none
attr title "packets removed, count"
scalar RplNetwork36.sink[0].wlan[0].mac.queue packetRemoved:sum(packetBytes) 0
attr interpolationmode none
attr title "packets removed, sum(packetBytes)"
scalar RplNetwork36.sink[0].wlan[0].mac nbTxFrames 58
scalar RplNetwork36.sink[0].wlan[0].mac nbRxFrames 350
scalar RplNetwork36.sink[0].wlan[0].mac nbDroppedFrames 0
scalar RplNetwork36.sink[0].wlan[0].mac nbMissedAcks 0
scalar RplNetwork36.sink[0].wlan[0].mac nbRecvdAcks 35
scalar RplNetwork36.sink[0].wlan[0].mac nbTxAcks 291
scalar RplNetwork36.sink[0].wlan[0].mac nbDuplicates 0
scalar RplNetwork36.sink[0].wlan[0].mac meanBackoff 0.0011806896551724
scalar RplNetwork36.sink[0].wlan[0].mac nbBackoffs 58
scalar RplNetwork36.sink[0].wlan[0].mac backoffDurations 0.06848
scalar RplNetwork36.sink[0].wlan[0].mac packetDropNotAddressToUs:count 505
attr interpolationmode none
attr source packetDropReasonIsNotAddressedToUs(packetDropped)
attr title "packet drop: not addressed to us, count"
scalar RplNetwork36.sink[0].wlan[0].mac packetDropNotAddressToUs:sum(packetBytes) 2525
attr interpolationmode none
attr source packetDropReasonIsNotAddressedToUs(packetDropped)
attr title "packet drop: not addressed to us, sum(packetBytes)"
scalar RplNetwork36.sink[0].wlan[0].mac packetDropIncorrectlyReceived:count 0
attr interpolationmode none
attr source packetDropReasonIsIncorrectlyReceived(packetDropped)
attr title "packet drop: incorrectly received, count"
scalar RplNetwork36.sink[0].wlan[0].mac packetDropIncorrectlyReceived:sum(packetBytes) 0
attr interpolationmode none
attr source packetDropReasonIsIncorrectlyReceived(packetDropped)
attr title "packet drop: incorrectly received, sum(packetBytes)"
scalar RplNetwork36.sink[0].wlan[0].mac packetDropQueueOverflow:count 0
attr interpolationmode none
attr source packetDropReasonIsQueueOverflow(packetDropped)
attr title "packet drop: queue overflow, count"
scalar RplNetwork36.sink[0].wlan[0].mac packetDropQueueOverflow:sum(packetBytes) 0
attr interpolationmode none
attr source packetDropReasonIsQueueOverflow(packetDropped)
attr title "packet drop: queue overflow, sum(packetBytes)"
scalar RplNetwork36.sink[0].wlan[0].mac packetDropRetryLimitReached:count 0
attr interpolationmode none
attr source packetDropReasonIsRetryLimitReached(packetDropped)
attr title "packet drop: retry limit reached, count"
scalar RplNetwork36.sink[0].wlan[0].mac packetDropRetryLimitReached:sum(packetBytes) 0
attr interpolationmode none
attr source packetDropReasonIsRetryLimitReached(packetDropped)
attr title "packet drop: retry limit reached, sum(packetBytes)"
scalar RplNetwork36.sink[0].wlan[0].mac packetDropBackoffLimitReached:count 0
attr interpolationmode none
attr source packetDropReasonIsCongestion(packetDropped)
attr title "packet drop: backoff limit reached, count"
scalar RplNetwork36.sink[0].wlan[0].mac packetDropBackoffLimitReached:sum(packetBytes) 0
attr interpolationmode none
attr source packetDropReasonIsCongestion(packetDropped)
attr title "packet drop: backoff limit reached, sum(packetBytes)"
scalar RplNetwork36.sink[0].wlan[0].mac linkBroken:count 0
attr interpolationmode none
attr source linkBroken
attr title "link break, count"
scalar RplNetwork36.sink[0].wlan[0].radio radioMode:count 546
attr interpolationmode sample-hold
attr source radioModeChanged
attr title "Radio mode, count"
scalar RplNetwork36.sink[0].wlan[0].radio receptionState:count 3178
attr interpolationmode sample-hold
attr source receptionStateChanged
attr title "Radio reception state, count"
scalar RplNetwork36.sink[0].wlan[0].radio transmissionState:count 1092
attr interpolationmode sample-hold
attr source transmissionStateChanged
attr title "Radio transmission state, count"
statistic RplNetwork36.sink[0].wlan[0].radio minSnir:histogram
field count 808
field mean 696.45579827976
field stddev 23.052941068409
field min 41.979091432339
field max 697.26679791649
field sum 562736.28501005
field sqrsum 392349819.13782
attr source minimumSnir(packetSentToUpper)
attr title "Min SNIR, histogram"
bin	-inf	0
bin	40	1
bin	50	0
bin	60	0
bin	70	0
bin	80	0
bin	90	0
bin	100	0
bin	110	0
bin	120	0
bin	130	0
bin	140	0
bin	150	0
bin	160	0
bin	170	0
bin	180	0
bin	190	0
bin	200	0
bin	210	0
bin	220	0
bin	230	0
bin	240	0
bin	250	0
bin	260	0
bin	270	0
bin	280	0
bin	290	0
bin	300	0
bin	310	0
bin	320	0
bin	330	0
bin	340	0
bin	350	0
bin	360	0
bin	370	0
bin	380	0
bin	390	0
bin	400	0
bin	410	0
bin	420	0
bin	430	0
bin	440	0
bin	450	0
bin	460	0
bin	470	0
bin	480	0
bin	490	0
bin	500	0
bin	510	0
bin	520	0
bin	530	0
bin	540	0
bin	550	0
bin	560	0
bin	570	0
bin	580	0
bin	590	0
bin	600	0
bin	610	0
bin	620	0
bin	630	0
bin	640	0
bin	650	0
bin	660	0
bin	670	0
bin	680	0
bin	690	807
bin	700	0
statistic RplNetwork36.sink[0].wlan[0].radio packetErrorRate:histogram
field count 808
field mean 0
field stddev 0
field min 0
field max 0
field sum 0
field sqrsum 0
attr source packetErrorRate(packetSentToUpper)
attr title "Packet error rate, histogram"
bin	-inf	0
bin	-0.5	0
bin	-0.48	0
bin	-0.46	0
bin	-0.44	0
bin	-0.42	0
bin	-0.4	0
bin	-0.38	0
bin	-0.36	0
bin	-0.34	0
bin	-0.32	0
bin	-0.3	0
bin	-0.28	0
bin	-0.26	0
bin	-0.24	0
bin	-0.22	0
bin	-0.2	0
bin	-0.18	0
bin	-0.16	0
bin	-0.14	0
bin	-0.12	0
bin	-0.1	0
bin	-0.08	0
bin	-0.06	0
bin	-0.04	0
bin	-0.02	0
bin	0	808
bin	0.02	0
bin	0.04	0
bin	0.06	0
bin	0.08	0
bin	0.1	0
bin	0.12	0
bin	0.14	0
bin	0.16	0
bin	0.18	0
bin	0.2	0
bin	0.22	0
bin	0.24	0
bin	0.26	0
bin	0.28	0
bin	0.3	0
bin	0.32	0
bin	0.34	0
bin	0.36	0
bin	0.38	0
bin	0.4	0
bin	0.42	0
bin	0.44	0
bin	0.46	0
bin	0.48	0
bin	0.5	0
statistic RplNetwork36.sink[0].wlan[0].radio bitErrorRate:histogram
field count 808
field mean 2.4086349665308e-185
field stddev 0
field min 0
field max 1.9461770529569e-182
field sum 1.9461770529569e-182
field sqrsum 0
attr source bitErrorRate(packetSentToUpper)
attr title "Bit error rate, histogram"
bin	-inf	0
bin	-0.5	0
bin	-0.48	0
bin	-0.46	0
bin	-0.44	0
bin	-0.42	0
bin	-0.4	0
bin	-0.38	0
bin	-0.36	0
bin	-0.34	0
bin	-0.32	0
bin	-0.3	0
bin	-0.28	0
bin	-0.26	0
bin	-0.24	0
bin	-0.22	0
bin	-0.2	0
bin	-0.18	0
bin	-0.16	0
bin	-0.14	0
bin	-0.12	0
bin	-0.1	0
bin	-0.08	0
bin	-0.06	0
bin	-0.04	0
bin	-0.02	0
bin	0	808
bin	0.02	0
bin	0.04	0
bin	0.06	0
bin	0.08	0
bin	0.1	0
bin	0.12	0
bin	0.14	0
bin	0.16	0
bin	0.18	0
bin	0.2	0
bin	0.22	0
bin	0.24	0
bin	0.26	0
bin	0.28	0
bin	0.3	0
bin	0.32	0
bin	0.34	0
bin	0.36	0
bin	0.38	0
bin	0.4	0
bin	0.42	0
bin	0.44	0
bin	0.46	0
bin	0.48	0
bin	0.5	0
statistic RplNetwork36.sink[0].wlan[0].radio symbolErrorRate:histogram
field count 0
field mean -nan
field stddev -nan
field min -nan
field max -nan
field sum 0
field sqrsum 0
attr source symbolErrorRate(packetSentToUpper)
attr title "Symbol error rate, histogram"
bin	-inf	0
bin	0	0
bin	1	0
scalar RplNetwork36.sink[0].ipv6.neighbourDiscovery startDad:count 0
attr title "DAD started, count"
scalar RplNetwork36.sink[0].udp packetReceived:count 254
attr interpolationmode none
attr source packetReceived
attr title "packets received, count"
scalar RplNetwork36.sink[0].udp packetReceived:sum(packetBytes) 16256
attr interpolationmode none
attr source packetReceived
attr title "packets received, sum(packetBytes)"
scalar RplNetwork36.sink[0].udp packetSent:count 0
attr interpolationmode none
attr source packetSent
attr title "packets sent, count"
scalar RplNetwork36.sink[0].udp packetSent:sum(packetBytes) 0
attr interpolationmode none
attr source packetSent
attr title "packets sent, sum(packetBytes)"
scalar RplNetwork36.sink[0].udp passedUpPk:count 254
attr interpolationmode none
attr source packetSentToUpper
attr title "packets passed up, count"
scalar RplNetwork36.sink[0].udp droppedPkWrongPort:count 0
attr interpolationmode none
attr source packetDropReasonIsNoPortFound(packetDropped)
attr title "packets dropped (wrong port), count"
scalar RplNetwork36.sink[0].udp droppedPkBadChecksum:count 0
attr interpolationmode none
attr source packetDropReasonIsIncorrectlyReceived(packetDropped)
attr title "packets dropped (checksum error), count"
scalar RplNetwork36.sink[0].app[0] packetReceived:count 254
attr interpolationmode none
attr source packetReceived
attr title "packets received, count"
scalar RplNetwork36.sink[0].app[0] packetReceived:sum(packetBytes) 14224
attr interpolationmode none
attr source packetReceived
attr title "packets received, sum(packetBytes)"
statistic RplNetwork36.sink[0].app[0] endToEndDelay:histogram
field count 254
field mean 0.005224196418126
field stddev 0.00073095330842628
field min 0.004128133426
field max 0.006368133426
field sum 1.326945890204
field sqrsum 0.0070674020296429
attr interpolationmode none
attr source dataAge(packetReceived)
attr title "end-to-end delay, histogram"
attr unit s
bin	-inf	0
bin	0.00355	0
bin	0.0036	0
bin	0.00365	0
bin	0.0037	0
bin	0.00375	0
bin	0.0038	0
bin	0.00385	0
bin	0.0039	0
bin	0.00395	0
bin	0.004	0
bin	0.00405	0
bin	0.0041	38
bin	0.00415	0
bin	0.0042	0
bin	0.00425	0
bin	0.0043	0
bin	0.00435	0
bin	0.0044	26
bin	0.00445	0
bin	0.0045	0
bin	0.00455	0
bin	0.0046	0
bin	0.00465	0
bin	0.0047	0
bin	0.00475	30
bin	0.0048	0
bin	0.00485	0
bin	0.0049	0
bin	0.00495	0
bin	0.005	0
bin	0.00505	34
bin	0.0051	0
bin	0.00515	0
bin	0.0052	0
bin	0.00525	0
bin	0.0053	0
bin	0.00535	0
bin	0.0054	34
bin	0.00545	0
bin	0.0055	0
bin	0.00555	0
bin	0.0056	0
bin	0.00565	0
bin	0.0057	35
bin	0.00575	0
bin	0.0058	0
bin	0.00585	0
bin	0.0059	0
bin	0.00595	0
bin	0.006	28
bin	0.00605	0
bin	0.0061	0
bin	0.00615	0
bin	0.0062	0
bin	0.00625	0
bin	0.0063	0
bin	0.00635	29
bin	0.0064	0
bin	0.00645	0
bin	0.0065	0
bin	0.00655	0
bin	0.0066	0
bin	0.00665	0
bin	0.0067	0
bin	0.00675	0
bin	0.0068	0
bin	0.00685	0
bin	0.0069	0
bin	0.00695	0
scalar RplNetwork36.sink[0].rpl rank 1
scalar RplNetwork36.sink[0].rpl parentUnreachable:count 0
attr interpolationmode none
attr source parentUnreachable
attr title "Preferred parent unreachability detected, count"
scalar RplNetwork36.sink[0].rpl rankUpdated:count 0
attr interpolationmode none
attr source rankUpdated
attr title "Rank is updated, count"
scalar RplNetwork36.sink[0].rpl parentChanged:count 0
attr interpolationmode none
attr source parentChanged
attr title "Preferred parent has changed, count"
scalar RplNetwork36.sink[0].rpl daoReceived:count 0
attr interpolationmode none
attr source daoReceived
attr title "DAO packets received, count"
scalar RplNetwork36.sink[0].rpl dioReceived:count 0
attr interpolationmode none
attr source dioReceived
attr title "DIO packets received, count"
scalar RplNetwork36.host[0].energyStorage residualEnergyCapacity:last -7.1237895504893
attr interpolationmode linear
attr source residualEnergyCapacityChanged
attr title "Residual energy capacity, last"
scalar RplNetwork36.host[0].lo[0].lo rcvdPkFromHl:count 0
attr interpolationmode none
attr source packetReceivedFromUpper
attr title "packets received from higher layer, count"
scalar RplNetwork36.host[0].lo[0].lo rcvdPkFromHl:sum(packetBytes) 0
attr interpolationmode none
attr source packetReceivedFromUpper
attr title "packets received from higher layer, sum(packetBytes)"
scalar RplNetwork36.host[0].lo[0].lo passedUpPk:count 0
attr interpolationmode none
attr source packetSentToUpper
attr title "packets passed to higher layer, count"
scalar RplNetwork36.host[0].lo[0].lo passedUpPk:sum(packetBytes) 0
attr interpolationmode none
attr source packetSentToUpper
attr title "packets passed to higher layer, sum(packetBytes)"
scalar RplNetwork36.host[0].wlan[0].mac.queue packetPopped:count 80
attr interpolationmode none
attr title "packet popped, count"
scalar RplNetwork36.host[0].wlan[0].mac.queue packetPopped:sum(packetBytes) 8800
attr interpolationmode none
attr title "packet popped, sum(packetBytes)"
statistic RplNetwork36.host[0].wlan[0].mac.queue queueingTime:histogram
field count 80
field mean 0.001288
field stddev 0.00078280249541979
field min 0.000128
field max 0.002368
field sum 0.10304
field sqrsum 0.00018112512
attr interpolationmode none
attr source queueingTime(packetPopped)
attr title "queueing times, histogram"
attr unit s
bin	-inf	0
bin	0	0
bin	5e-05	0
bin	0.0001	14
bin	0.00015	0
bin	0.0002	0
bin	0.00025	0
bin	0.0003	0
bin	0.00035	0
bin	0.0004	6
bin	0.00045	0
bin	0.0005	0
bin	0.00055	0
bin	0.0006	0
bin	0.00065	0
bin	0.0007	0
bin	0.00075	9
bin	0.0008	0
bin	0.00085	0
bin	0.0009	0
bin	0.00095	0
bin	0.001	0
bin	0.00105	8
bin	0.0011	0
bin	0.00115	0
bin	0.0012	0
bin	0.00125	0
bin	0.0013	0
bin	0.00135	0
bin	0.0014	7
bin	0.00145	0
bin	0.0015	0
bin	0.00155	0
bin	0.0016	0
bin	0.00165	0
bin	0.0017	14
bin	0.00175	0
bin	0.0018	0
bin	0.00185	0
bin	0.0019	0
bin	0.00195	0
bin	0.002	10
bin	0.00205	0
bin	0.0021	0
bin	0.00215	0
bin	0.0022	0
bin	0.00225	0
bin	0.0023	0
bin	0.00235	12
bin	0.0024	0
bin	0.00245	0
bin	0.0025	0
bin	0.00255	0
bin	0.0026	0
bin	0.00265	0
bin	0.0027	0
bin	0.00275	0
bin	0.0028	0
bin	0.00285	0
bin	0.0029	0
bin	0.00295	0
scalar RplNetwork36.host[0].wlan[0].mac.queue queueLength:max 1
attr interpolationmode sample-hold
attr source "count(packetPushed) - count(packetPopped) - count(packetRemoved) - count(packetDropped)"
attr title "queue length, max"
scalar RplNetwork36.host[0].wlan[0].mac.queue queueLength:timeavg 2.9476999658047e-05
attr interpolationmode sample-hold
attr source "count(packetPushed) - count(packetPopped) - count(packetRemoved) - count(packetDropped)"
attr title "queue length, timeavg"
scalar RplNetwork36.host[0].wlan[0].mac.queue packetPushed:count 80
attr interpolationmode none
attr title "packet pushed, count"
scalar RplNetwork36.host[0].wlan[0].mac.queue packetPushed:sum(packetBytes) 8800
attr interpolationmode none
attr title "packet pushed, sum(packetBytes)"
scalar RplNetwork36.host[0].wlan[0].mac.queue packetDropQueueOverflow:count 0
attr interpolationmode none
attr source packetDropReasonIsQueueOverflow(packetDropped)
attr title "packet drops: queue overflow, count"
scalar RplNetwork36.host[0].wlan[0].mac.queue packetDropQueueOverflow:sum(packetBytes) 0
attr interpolationmode none
attr source packetDropReasonIsQueueOverflow(packetDropped)
attr title "packet drops: queue overflow, sum(packetBytes)"
scalar RplNetwork36.host[0].wlan[0].mac.queue packetRemoved:count 0
attr interpolationmode none
attr title "packets removed, count"
scalar RplNetwork36.host[0].wlan[0].mac.queue packetRemoved:sum(packetBytes) 0
attr interpolationmode none
attr title "packets removed, sum(packetBytes)"
scalar RplNetwork36.host[0].wlan[0].mac nbTxFrames 87
scalar RplNetwork36.host[0].wlan[0].mac nbRxFrames 41
scalar RplNetwork36.host[0].wlan[0].mac nbDroppedFrames 0
scalar RplNetwork36.host[0].wlan[0].mac nbMissedAcks 0
scalar RplNetwork36.host[0].wlan[0].mac nbRecvdAcks 65
scalar RplNetwork36.host[0].wlan[0].mac nbTxAcks 1
scalar RplNetwork36.host[0].wlan[0].mac nbDuplicates 0
scalar RplNetwork36.host[0].wlan[0].mac meanBackoff 0.001184367816092
scalar RplNetwork36.host[0].wlan[0].mac nbBackoffs 87
scalar RplNetwork36.host[0].wlan[0].mac backoffDurations 0.10304
scalar RplNetwork36.host[0].wlan[0].mac packetDropNotAddressToUs:count 126
attr interpolationmode none
attr source packetDropReasonIsNotAddressedToUs(packetDropped)
attr title "packet drop: not addressed to us, count"
scalar RplNetwork36.host[0].wlan[0].mac packetDropNotAddressToUs:sum(packetBytes) 14238
attr interpolationmode none
attr source packetDropReasonIsNotAddressedToUs(packetDropped)
attr title "packet drop: not addressed to us, sum(packetBytes)"
scalar RplNetwork36.host[0].wlan[0].mac packetDropIncorrectlyReceived:count 0
attr interpolationmode none
attr source packetDropReasonIsIncorrectlyReceived(packetDropped)
attr title "packet drop: incorrectly received, count"
scalar RplNetwork36.host[0].wlan[0].mac packetDropIncorrectlyReceived:sum(packetBytes) 0
attr interpolationmode none
attr source packetDropReasonIsIncorrectlyReceived(packetDropped)
attr title "packet drop: incorrectly received, sum(packetBytes)"
scalar RplNetwork36.host[0].wlan[0].mac packetDropQueueOverflow:count 0
attr interpolationmode none
attr source packetDropReasonIsQueueOverflow(packetDropped)
attr title "packet drop: queue overflow, count"
scalar RplNetwork36.host[0].wlan[0].mac packetDropQueueOverflow:sum(packetBytes) 0
attr interpolationmode none
attr source packetDropReasonIsQueueOverflow(packetDropped)
attr title "packet drop: queue overflow, sum(packetBytes)"
scalar RplNetwork36.host[0].wlan[0].mac packetDropRetryLimitReached:count 0
attr interpolationmode none
attr source packetDropReasonIsRetryLimitReached(packetDropped)
attr title "packet drop: retry limit reached, count"
scalar RplNetwork36.host[0].wlan[0].mac packetDropRetryLimitReached:sum(packetBytes) 0
attr interpolationmode none
attr source packetDropReasonIsRetryLimitReached(packetDropped)
attr title "packet drop: retry limit reached, sum(packetBytes)"
scalar RplNetwork36.host[0].wlan[0].mac packetDropBackoffLimitReached:count 0
attr interpolationmode none
attr source packetDropReasonIsCongestion(packetDropped)
attr title "packet drop: backoff limit reached, count"
scalar RplNetwork36.host[0].wlan[0].mac packetDropBackoffLimitReached:sum(packetBytes) 0
attr interpolationmode none
attr source packetDropReasonIsCongestion(packetDropped)
attr title "packet drop: backoff limit reached, sum(packetBytes)"
scalar RplNetwork36.host[0].wlan[0].mac linkBroken:count 0
attr interpolationmode none
attr source linkBroken
attr title "link break, count"
scalar RplNetwork36.host[0].wlan[0].radio radioMode:count 160
attr interpolationmode sample-hold
attr source radioModeChanged
attr title "Radio mode, count"
scalar RplNetwork36.host[0].wlan[0].radio receptionState:count 882
attr interpolationmode sample-hold
attr source receptionStateChanged
attr title "Radio reception state, count"
scalar RplNetwork36.host[0].wlan[0].radio transmissionState:count 320
attr interpolationmode sample-hold
attr source transmissionStateChanged
attr title "Radio transmission state, count"
statistic RplNetwork36.host[0].wlan[0].radio minSnir:histogram
field count 221
field mean 686.62533557264
field stddev 78.718984732999
field min 62.67600576823
field max 697.26679791649
field sum 151744.19916155
field sqrsum 105554680.95313
attr source minimumSnir(packetSentToUpper)
attr title "Min SNIR, histogram"
bin	-inf	0
bin	0	0
bin	10	0
bin	20	0
bin	30	0
bin	40	0
bin	50	0
bin	60	1
bin	70	0
bin	80	0
bin	90	1
bin	100	0
bin	110	1
bin	120	0
bin	130	0
bin	140	0
bin	150	0
bin	160	1
bin	170	0
bin	180	0
bin	190	0
bin	200	0
bin	210	0
bin	220	0
bin	230	0
bin	240	0
bin	250	0
bin	260	0
bin	270	0
bin	280	0
bin	290	0
bin	300	0
bin	310	0
bin	320	0
bin	330	0
bin	340	0
bin	350	0
bin	360	0
bin	370	0
bin	380	0
bin	390	0
bin	400	0
bin	410	0
bin	420	0
bin	430	0
bin	440	0
bin	450	0
bin	460	0
bin	470	0
bin	480	0
bin	490	0
bin	500	0
bin	510	0
bin	520	0
bin	530	0
bin	540	0
bin	550	0
bin	560	0
bin	570	0
bin	580	0
bin	590	0
bin	600	0
bin	610	0
bin	620	0
bin	630	0
bin	640	0
bin	650	0
bin	660	0
bin	670	0
bin	680	0
bin	690	217
bin	700	0
bin	710	0
bin	720	0
bin	730	0
bin	740	0
bin	750	0
bin	760	0
bin	770	0
bin	780	0
bin	790	0
bin	800	0
bin	810	0
bin	820	0
bin	830	0
bin	840	0
bin	850	0
bin	860	0
statistic RplNetwork36.host[0].wlan[0].radio packetErrorRate:histogram
field count 221
field mean 0
field stddev 0
field min 0
field max 0
field sum 0
field sqrsum 0
attr source packetErrorRate(packetSentToUpper)
attr title "Packet error rate, histogram"
bin	-inf	0
bin	-0.5	0
bin	-0.48	0
bin	-0.46	0
bin	-0.44	0
bin	-0.42	0
bin	-0.4	0
bin	-0.38	0
bin	-0.36	0
bin	-0.34	0
bin	-0.32	0
bin	-0.3	0
bin	-0.28	0
bin	-0.26	0
bin	-0.24	0
bin	-0.22	0
bin	-0.2	0
bin	-0.18	0
bin	-0.16	0
bin	-0.14	0
bin	-0.12	0
bin	-0.1	0
bin	-0.08	0
bin	-0.06	0
bin	-0.04	0
bin	-0.02	0
bin	0	221
bin	0.02	0
bin	0.04	0
bin	0.06	0
bin	0.08	0
bin	0.1	0
bin	0.12	0
bin	0.14	0
bin	0.16	0
bin	0.18	0
bin	0.2	0
bin	0.22	0
bin	0.24	0
bin	0.26	0
bin	0.28	0
bin	0.3	0
bin	0.32	0
bin	0.34	0
bin	0.36	0
bin	0.38	0
bin	0.4	0
bin	0.42	0
bin	0.44	0
bin	0.46	0
bin	0.48	0
bin	0.5	0
statistic RplNetwork36.host[0].wlan[0].radio bitErrorRate:histogram
field count 221
field mean 1.1461281750918e-274
field stddev 0
field min 0
field max 2.5329432669528e-272
field sum 2.5329432669528e-272
field sqrsum 0
attr source bitErrorRate(packetSentToUpper)
attr title "Bit error rate, histogram"
bin	-inf	0
bin	0	220
bin	5e-274	0
bin	1e-273	0
bin	1.5e-273	0
bin	2e-273	0
bin	2.5e-273	0
bin	3e-273	0
bin	3.5e-273	0
bin	4e-273	0
bin	4.5e-273	0
bin	5e-273	0
bin	5.5e-273	0
bin	6e-273	0
bin	6.5e-273	0
bin	7e-273	0
bin	7.5e-273	0
bin	8e-273	0
bin	8.5e-273	0
bin	9e-273	0
bin	9.5e-273	0
bin	1e-272	0
bin	1.05e-272	0
bin	1.1e-272	0
bin	1.15e-272	0
bin	1.2e-272	0
bin	1.25e-272	0
bin	1.3e-272	0
bin	1.35e-272	0
bin	1.4e-272	0
bin	1.45e-272	0
bin	1.5e-272	0
bin	1.55e-272	0
bin	1.6e-272	0
bin	1.65e-272	0
bin	1.7e-272	0
bin	1.75e-272	0
bin	1.8e-272	0
bin	1.85e-272	0
bin	1.9e-272	0
bin	1.95e-272	0
bin	2e-272	0
bin	2.05e-272	0
bin	2.1e-272	0
bin	2.15e-272	0
bin	2.2e-272	0
bin	2.25e-272	0
bin	2.3e-272	0
bin	2.35e-272	0
bin	2.4e-272	0
bin	2.45e-272	0
bin	2.5e-272	1
bin	2.55e-272	0
bin	2.6e-272	0
bin	2.65e-272	0
bin	2.7e-272	0
bin	2.75e-272	0
bin	2.8e-272	0
bin	2.85e-272	0
bin	2.9e-272	0
bin	2.95e-272	0
bin	3e-272	0
bin	3.05e-272	0
bin	3.1e-272	0
bin	3.15e-272	0
bin	3.2e-272	0
statistic RplNetwork36.host[0].wlan[0].radio symbolErrorRate:histogram
field count 0
field mean -nan
field stddev -nan
field min -nan
field max -nan
field sum 0
field sqrsum 0
attr source symbolErrorRate(packetSentToUpper)
attr title "Symbol error rate, histogram"
bin	-inf	0
bin	0	0
bin	1	0
scalar RplNetwork36.host[0].ipv6.neighbourDiscovery startDad:count 0
attr title "DAD started, count"
scalar RplNetwork36.host[0].udp packetReceived:count 0
attr interpolationmode none
attr source packetReceived
attr title "packets received, count"
scalar RplNetwork36.host[0].udp packetReceived:sum(packetBytes) 0
attr interpolationmode none
attr source packetReceived
attr title "packets received, sum(packetBytes)"
scalar RplNetwork36.host[0].udp packetSent:count 63
attr interpolationmode none
attr source packetSent
attr title "packets sent, count"
scalar RplNetwork36.host[0].udp packetSent:sum(packetBytes) 4032
attr interpolationmode none
attr source packetSent
attr title "packets sent, sum(packetBytes)"
scalar RplNetwork36.host[0].udp passedUpPk:count 0
attr interpolationmode none
attr source packetSentToUpper
attr title "packets passed up, count"
scalar RplNetwork36.host[0].udp droppedPkWrongPort:count 0
attr interpolationmode none
attr source packetDropReasonIsNoPortFound(packetDropped)
attr title "packets dropped (wrong port), count"
scalar RplNetwork36.host[0].udp droppedPkBadChecksum:count 0
attr interpolationmode none
attr source packetDropReasonIsIncorrectlyReceived(packetDropped)
attr title "packets dropped (checksum error), count"
scalar RplNetwork36.host[0].app[0] "packets sent" 64
scalar RplNetwork36.host[0].app[0] "packets received" 0
scalar RplNetwork36.host[0].app[0] packetReceived:count 0
attr interpolationmode none
attr source packetReceived
attr title "packets received, count"
scalar RplNetwork36.host[0].app[0] packetReceived:sum(packetBytes) 0
attr interpolationmode none
attr source packetReceived
attr title "packets received, sum(packetBytes)"
statistic RplNetwork36.host[0].app[0] rcvdPkLifetime:stats
field count 0
field mean -nan
field stddev -nan
field min -nan
field max -nan
field sum 0
field sqrsum 0
attr interpolationmode none
attr source dataAge(packetReceived)
attr title "received packet lifetime, stats"
attr unit s
scalar RplNetwork36.host[0].app[0] packetSent:count 63
attr interpolationmode none
attr source packetSent
attr title "packets sent, count"
scalar RplNetwork36.host[0].app[0] packetSent:sum(packetBytes) 3528
attr interpolationmode none
attr source packetSent
attr title "packets sent, sum(packetBytes)"
scalar RplNetwork36.host[0].rpl rank 6
scalar RplNetwork36.host[0].rpl parentId 6
scalar RplNetwork36.host[0].rpl parentUnreachable:count 0
attr interpolationmode none
attr source parentUnreachable
attr title "Preferred parent unreachability detected, count"
scalar RplNetwork36.host[0].rpl rankUpdated:count 0
attr interpolationmode none
attr source rankUpdated
attr title "Rank is updated, count"
scalar RplNetwork36.host[0].rpl parentChanged:count 0
attr interpolationmode none
attr source parentChanged
attr title "Preferred parent has changed, count"
scalar RplNetwork36.host[0].rpl daoReceived:count 0
attr interpolationmode none
attr source daoReceived
attr title "DAO packets received, count"
scalar RplNetwork36.host[0].rpl dioReceived:count 10
attr interpolationmode none
attr source dioReceived
attr title "DIO packets received, count"
scalar RplNetwork36.host[1].energyStorage residualEnergyCapacity:last -7.1291956702065
attr interpolationmode linear
attr source residualEnergyCapacityChanged
attr title "Residual energy capacity, last"
scalar RplNetwork36.host[1].lo[0].lo rcvdPkFromHl:count 0
attr interpolationmode none
attr source packetReceivedFromUpper
attr title "packets received from higher layer, count"
scalar RplNetwork36.host[1].lo[0].lo rcvdPkFromHl:sum(packetBytes) 0
attr interpolationmode none
attr source packetReceivedFromUpper
attr title "packets received from higher layer, sum(packetBytes)"
scalar RplNetwork36.host[1].lo[0].lo passedUpPk:count 0
attr interpolationmode none
attr source packetSentToUpper
attr title "packets passed to higher layer, count"
scalar RplNetwork36.host[1].lo[0].lo passedUpPk:sum(packetBytes) 0
attr interpolationmode none
attr source packetSentToUpper
attr title "packets passed to higher layer, sum(packetBytes)"
scalar RplNetwork36.host[1].wlan[0].mac.queue packetPopped:count 78
attr interpolationmode none
attr title "packet popped, count"
scalar RplNetwork36.host[1].wlan[0].mac.queue packetPopped:sum(packetBytes) 8654
attr interpolationmode none
attr title "packet popped, sum(packetBytes)"
statistic RplNetwork36.host[1].wlan[0].mac.queue queueingTime:histogram
field count 78
field mean 0.0011372307692308
field stddev 0.00072766263274467
field min 0.000128
field max 0.002368
field sum 0.088704
field sqrsum 0.000141647872
attr interpolationmode none
attr source queueingTime(packetPopped)
attr title "queueing times, histogram"
attr unit s
bin	-inf	0
bin	0	0
bin	5e-05	0
bin	0.0001	13
bin	0.00015	0
bin	0.0002	0
bin	0.00025	0
bin	0.0003	0
bin	0.00035	0
bin	0.0004	11
bin	0.00045	0
bin	0.0005	0
bin	0.00055	0
bin	0.0006	0
bin	0.00065	0
bin	0.0007	0
bin	0.00075	12
bin	0.0008	0
bin	0.00085	0
bin	0.0009	0
bin	0.00095	0
bin	0.001	0
bin	0.00105	3
bin	0.0011	0
bin	0.00115	0
bin	0.0012	0
bin	0.00125	0
bin	0.0013	0
bin	0.00135	0
bin	0.0014	13
bin	0.00145	0
bin	0.0015	0
bin	0.00155	0
bin	0.0016	0
bin	0.00165	0
bin	0.0017	11
bin	0.00175	0
bin	0.0018	0
bin	0.00185	0
bin	0.0019	0
bin	0.00195	0
bin	0.002	10
bin	0.00205	0
bin	0.0021	0
bin	0.00215	0
bin	0.0022	0
bin	0.00225	0
bin	0.0023	0
bin	0.00235	5
bin	0.0024	0
bin	0.00245	0
bin	0.0025	0
bin	0.00255	0
bin	0.0026	0
bin	0.00265	0
bin	0.0027	0
bin	0.00275	0
bin	0.0028	0
bin	0.00285	0
bin	0.0029	0
bin	0.00295	0
scalar RplNetwork36.host[1].wlan[0].mac.queue queueLength:max 1
attr interpolationmode sample-hold
attr source "count(packetPushed) - count(packetPopped) - count(packetRemoved) - count(packetDropped)"
attr title "queue length, max"
scalar RplNetwork36.host[1].wlan[0].mac.queue queueLength:timeavg 2.5243369934292e-05
attr interpolationmode sample-hold
attr source "count(packetPushed) - count(packetPopped) - count(packetRemoved) - count(packetDropped)"
attr title "queue length, timeavg"
scalar RplNetwork36.host[1].wlan[0].mac.queue packetPushed:count 78
attr interpolationmode none
attr title "packet pushed, count"
scalar RplNetwork36.host[1].wlan[0].mac.queue packetPushed:sum(packetBytes) 8654
attr interpolationmode none
attr title "packet pushed, sum(packetBytes)"
scalar RplNetwork36.host[1].wlan[0].mac.queue packetDropQueueOverflow:count 0
attr interpolationmode none
attr source packetDropReasonIsQueueOverflow(packetDropped)
attr title "packet drops: queue overflow, count"
scalar RplNetwork36.host[1].wlan[0].mac.queue packetDropQueueOverflow:sum(packetBytes) 0
attr interpolationmode none
attr source packetDropReasonIsQueueOverflow(packetDropped)
attr title "packet drops: queue overflow, sum(packetBytes)"
scalar RplNetwork36.host[1].wlan[0].mac.queue packetRemoved:count 0
attr interpolationmode none
attr title "packets removed, count"
scalar RplNetwork36.host[1].wlan[0].mac.queue packetRemoved:sum(packetBytes) 0
attr interpolationmode none
attr title "packets removed, sum(packetBytes)"
scalar RplNetwork36.host[1].wlan[0].mac nbTxFrames 84
scalar RplNetwork36.host[1].wlan[0].mac nbRxFrames 62
scalar RplNetwork36.host[1].wlan[0].mac nbDroppedFrames 0
scalar RplNetwork36.host[1].wlan[0].mac nbMissedAcks 0
scalar RplNetwork36.host[1].wlan[0].mac nbRecvdAcks 65
scalar RplNetwork36.host[1].wlan[0].mac nbTxAcks 1
scalar RplNetwork36.host[1].wlan[0].mac nbDuplicates 0
scalar RplNetwork36.host[1].wlan[0].mac meanBackoff 0.001032380952381
scalar RplNetwork36.host[1].wlan[0].mac nbBackoffs 84
scalar RplNetwork36.host[1].wlan[0].mac backoffDurations 0.08672
scalar RplNetwork36.host[1].wlan[0].mac packetDropNotAddressToUs:count 189
attr interpolationmode none
attr source packetDropReasonIsNotAddressedToUs(packetDropped)
attr title "packet drop: not addressed to us, count"
scalar RplNetwork36.host[1].wlan[0].mac packetDropNotAddressToUs:sum(packetBytes) 21357
attr interpolationmode none
attr source packetDropReasonIsNotAddressedToUs(packetDropped)
attr title "packet drop: not addressed to us, sum(packetBytes)"
scalar RplNetwork36.host[1].wlan[0].mac packetDropIncorrectlyReceived:count 0
attr interpolationmode none
attr source packetDropReasonIsIncorrectlyReceived(packetDropped)
attr title "packet drop: incorrectly received, count"
scalar RplNetwork36.host[1].wlan[0].mac packetDropIncorrectlyReceived:sum(packetBytes) 0
attr interpolationmode none
attr source packetDropReasonIsIncorrectlyReceived(packetDropped)
attr title "packet drop: incorrectly received, sum(packetBytes)"
scalar RplNetwork36.host[1].wlan[0].mac packetDropQueueOverflow:count 0
attr interpolationmode none
attr source packetDropReasonIsQueueOverflow(packetDropped)
attr title "packet drop: queue overflow, count"
scalar RplNetwork36.host[1].wlan[0].mac packetDropQueueOverflow:sum(packetBytes) 0
attr interpolationmode none
attr source packetDropReasonIsQueueOverflow(packetDropped)
attr title "packet drop: queue overflow, sum(packetBytes)"
scalar RplNetwork36.host[1].wlan[0].mac packetDropRetryLimitReached:count 0
attr interpolationmode none
attr source packetDropReasonIsRetryLimitReached(packetDropped)
attr title "packet drop: retry limit reached, count"
scalar RplNetwork36.host[1].wlan[0].mac packetDropRetryLimitReached:sum(packetBytes) 0
attr interpolationmode none
attr source packetDropReasonIsRetryLimitReached(packetDropped)
attr title "packet drop: retry limit reached, sum(packetBytes)"
scalar RplNetwork36.host[1].wlan[0].mac packetDropBackoffLimitReached:count 0
attr interpolationmode none
attr source packetDropReasonIsCongestion(packetDropped)
attr title "packet drop: backoff limit reached, count"
scalar RplNetwork36.host[1].wlan[0].mac packetDropBackoffLimitReached:sum(packetBytes) 0
attr interpolationmode none
attr source packetDropReasonIsCongestion(packetDropped)
attr title "packet drop: backoff limit reached, sum(packetBytes)"
scalar RplNetwork36.host[1].wlan[0].mac linkBroken:count 0
attr interpolationmode none
attr source linkBroken
attr title "link break, count"
scalar RplNetwork36.host[1].wlan[0].radio radioMode:count 156
attr interpolationmode sample-hold
attr source radioModeChanged
attr title "Radio mode, count"
scalar RplNetwork36.host[1].wlan[0].radio receptionState:count 1458
attr interpolationmode sample-hold
attr source receptionStateChanged
attr title "Radio reception state, count"
scalar RplNetwork36.host[1].wlan[0].radio transmissionState:count 312
attr interpolationmode sample-hold
attr source transmissionStateChanged
attr title "Radio transmission state, count"
statistic RplNetwork36.host[1].wlan[0].radio minSnir:histogram
field count 301
field mean 697.2667979165
field stddev 0
field min 697.26679791649
field max 697.26679791649
field sum 209877.30617287
field sqrsum 146340477.23049
attr source minimumSnir(packetSentToUpper)
attr title "Min SNIR, histogram"
bin	-inf	0
bin	696.76	0
bin	696.78	0
bin	696.8	0
bin	696.82	0
bin	696.84	0
bin	696.86	0
bin	696.88	0
bin	696.9	0
bin	696.92	0
bin	696.94	0
bin	696.96	0
bin	696.98	0
bin	697	0
bin	697.02	0
bin	697.04	0
bin	697.06	0
bin	697.08	0
bin	697.1	0
bin	697.12	0
bin	697.14	0
bin	697.16	0
bin	697.18	0
bin	697.2	0
bin	697.22	0
bin	697.24	0
bin	697.26	301
bin	697.28	0
bin	697.3	0
bin	697.32	0
bin	697.34	0
bin	697.36	0
bin	697.38	0
bin	697.4	0
bin	697.42	0
bin	697.44	0
bin	697.46	0
bin	697.48	0
bin	697.5	0
bin	697.52	0
bin	697.54	0
bin	697.56	0
bin	697.58	0
bin	697.6	0
bin	697.62	0
bin	697.64	0
bin	697.66	0
bin	697.68	0
bin	697.7	0
bin	697.72	0
bin	697.74	0
bin	697.76	0
bin	697.78	0
statistic RplNetwork36.host[1].wlan[0].radio packetErrorRate:histogram
field count 301
field mean 0
field stddev 0
field min 0
field max 0
field sum 0
field sqrsum 0
attr source packetErrorRate(packetSentToUpper)
attr title "Packet error rate, histogram"
bin	-inf	0
bin	-0.5	0
bin	-0.48	0
bin	-0.46	0
bin	-0.44	0
bin	-0.42	0
bin	-0.4	0
bin	-0.38	0
bin	-0.36	0
bin	-0.34	0
bin	-0.32	0
bin	-0.3	0
bin	-0.28	0
bin	-0.26	0
bin	-0.24	0
bin	-0.22	0
bin	-0.2	0
bin	-0.18	0
bin	-0.16	0
bin	-0.14	0
bin	-0.12	0
bin	-0.1	0
bin	-0.08	0
bin	-0.06	0
bin	-0.04	0
bin	-0.02	0
bin	0	301
bin	0.02	0
bin	0.04	0
bin	0.06	0
bin	0.08	0
bin	0.1	0
bin	0.12	0
bin	0.14	0
bin	0.16	0
bin	0.18	0
bin	0.2	0
bin	0.22	0
bin	0.24	0
bin	0.26	0
bin	0.28	0
bin	0.3	0
bin	0.32	0
bin	0.34	0
bin	0.36	0
bin	0.38	0
bin	0.4	0
bin	0.42	0
bin	0.44	0
bin	0.46	0
bin	0.48	0
bin	0.5	0
statistic RplNetwork36.host[1].wlan[0].radio bitErrorRate:histogram
field count 301
field mean 0
field stddev 0
field min 0
field max 0
field sum 0
field sqrsum 0
attr source bitErrorRate(packetSentToUpper)
attr title "Bit error rate, histogram"
bin	-inf	0
bin	-0.5	0
bin	-0.48	0
bin	-0.46	0
bin	-0.44	0
bin	-0.42	0
bin	-0.4	0
bin	-0.38	0
bin	-0.36	0
bin	-0.34	0
bin	-0.32	0
bin	-0.3	0
bin	-0.28	0
bin	-0.26	0
bin	-0.24	0
bin	-0.22	0
bin	-0.2	0
bin	-0.18	0
bin	-0.16	0
bin	-0.14	0
bin	-0.12	0
bin	-0.1	0
bin	-0.08	0
bin	-0.06	0
bin	-0.04	0
bin	-0.02	0
bin	0	301
bin	0.02	0
bin	0.04	0
bin	0.06	0
bin	0.08	0
bin	0.1	0
bin	0.12	0
bin	0.14	0
bin	0.16	0
bin	0.18	0
bin	0.2	0
bin	0.22	0
bin	0.24	0
bin	0.26	0
bin	0.28	0
bin	0.3	0
bin	0.32	0
bin	0.34	0
bin	0.36	0
bin	0.38	0
bin	0.4	0
bin	0.42	0
bin	0.44	0
bin	0.46	0
bin	0.48	0
bin	0.5	0
statistic RplNetwork36.host[1].wlan[0].radio symbolErrorRate:histogram
field count 0
field mean -nan
field stddev -nan
field min -nan
field max -nan
field sum 0
field sqrsum 0
attr source symbolErrorRate(packetSentToUpper)
attr title "Symbol error rate, histogram"
bin	-inf	0
bin	0	0
bin	1	0
scalar RplNetwork36.host[1].ipv6.neighbourDiscovery startDad:count 0
attr title "DAD started, count"
scalar RplNetwork36.host[1].udp packetReceived:count 0
attr interpolationmode none
attr source packetReceived
attr title "packets received, count"
scalar RplNetwork36.host[1].udp packetReceived:sum(packetBytes) 0
attr interpolationmode none
attr source packetReceived
attr title "packets received, sum(packetBytes)"
scalar RplNetwork36.host[1].udp packetSent:count 63
attr interpolationmode none
attr source packetSent
attr title "packets sent, count"
scalar RplNetwork36.host[1].udp packetSent:sum(packetBytes) 4032
attr interpolationmode none
attr source packetSent
attr title "packets sent, sum(packetBytes)"
scalar RplNetwork36.host[1].udp passedUpPk:count 0
attr interpolationmode none
attr source packetSentToUpper
attr title "packets passed up, count"
scalar RplNetwork36.host[1].udp droppedPkWrongPort:count 0
attr interpolationmode none
attr source packetDropReasonIsNoPortFound(packetDropped)
attr title "packets dropped (wrong port), count"
scalar RplNetwork36.host[1].udp droppedPkBadChecksum:count 0
attr interpolationmode none
attr source packetDropReasonIsIncorrectlyReceived(packetDropped)
attr title "packets dropped (checksum error), count"
scalar RplNetwork36.host[1].app[0] "packets sent" 64
scalar RplNetwork36.host[1].app[0] "packets received" 0
scalar RplNetwork36.host[1].app[0] packetReceived:count 0
attr interpolationmode none
attr source packetReceived
attr title "packets received, count"
scalar RplNetwork36.host[1].app[0] packetReceived:sum(packetBytes) 0
attr interpolationmode none
attr source packetReceived
attr title "packets received, sum(packetBytes)"
statistic RplNetwork36.host[1].app[0] rcvdPkLifetime:stats
field count 0
field mean -nan
field stddev -nan
field min -nan
field max -nan
field sum 0
field sqrsum 0
attr interpolationmode none
attr source dataAge(packetReceived)
attr title "received packet lifetime, stats"
attr unit s
scalar RplNetwork36.host[1].app[0] packetSent:count 63
attr interpolationmode none
attr source packetSent
attr title "packets sent, count"
scalar RplNetwork36.host[1].app[0] packetSent:sum(packetBytes) 3528
attr interpolationmode none
attr source packetSent
attr title "packets sent, sum(packetBytes)"
scalar RplNetwork36.host[1].rpl rank 5
scalar RplNetwork36.host[1].rpl parentId 7
scalar RplNetwork36.host[1].rpl parentUnreachable:count 0
attr interpolationmode none
attr source parentUnreachable
attr title "Preferred parent unreachability detected, count"
scalar RplNetwork36.host[1].rpl rankUpdated:count 0
attr interpolationmode none
attr source rankUpdated
attr title "Rank is updated, count"
scalar RplNetwork36.host[1].rpl parentChanged:count 0
attr interpolationmode none
attr source parentChanged
attr title "Preferred parent has changed, count"
scalar RplNetwork36.host[1].rpl daoReceived:count 0
attr interpolationmode none
attr source daoReceived
attr title "DAO packets received, count"
scalar RplNetwork36.host[1].rpl dioReceived:count 14
attr interpolationmode none
attr source dioReceived
attr title "DIO packets received, count"
scalar RplNetwork36.host[2].energyStorage residualEnergyCapacity:last -7.1458934662311
attr interpolationmode linear
attr source residualEnergyCapacityChanged
attr title "Residual energy capacity, last"
scalar RplNetwork36.host[2].lo[0].lo rcvdPkFromHl:count 0
attr interpolationmode none
attr source packetReceivedFromUpper
attr title "packets received from higher layer, count"
scalar RplNetwork36.host[2].lo[0].lo rcvdPkFromHl:sum(packetBytes) 0
attr interpolationmode none
attr source packetReceivedFromUpper
attr title "packets received from higher layer, sum(packetBytes)"
scalar RplNetwork36.host[2].lo[0].lo passedUpPk:count 0
attr interpolationmode none
attr source packetSentToUpper
attr title "packets passed to higher layer, count"
scalar RplNetwork36.host[2].lo[0].lo passedUpPk:sum(packetBytes) 0
attr interpolationmode none
attr source packetSentToUpper
attr title "packets passed to higher layer, sum(packetBytes)"
scalar RplNetwork36.host[2].wlan[0].mac.queue packetPopped:count 81
attr interpolationmode none
attr title "packet popped, count"
scalar RplNetwork36.host[2].wlan[0].mac.queue packetPopped:sum(packetBytes) 8913
attr interpolationmode none
attr title "packet popped, sum(packetBytes)"
statistic RplNetwork36.host[2].wlan[0].mac.queue queueingTime:histogram
field count 81
field mean 0.0012183703703704
field stddev 0.00070613816715364
field min 0.000128
field max 0.002368
field sum 0.098688
field sqrsum 0.000160129024
attr interpolationmode none
attr source queueingTime(packetPopped)
attr title "queueing times, histogram"
attr unit s
bin	-inf	0
bin	0	0
bin	5e-05	0
bin	0.0001	9
bin	0.00015	0
bin	0.0002	0
bin	0.00025	0
bin	0.0003	0
bin	0.00035	0
bin	0.0004	11
bin	0.00045	0
bin	0.0005	0
bin	0.00055	0
bin	0.0006	0
bin	0.00065	0
bin	0.0007	0
bin	0.00075	12
bin	0.0008	0
bin	0.00085	0
bin	0.0009	0
bin	0.00095	0
bin	0.001	0
bin	0.00105	8
bin	0.0011	0
bin	0.00115	0
bin	0.0012	0
bin	0.00125	0
bin	0.0013	0
bin	0.00135	0
bin	0.0014	14
bin	0.00145	0
bin	0.0015	0
bin	0.00155	0
bin	0.0016	0
bin	0.00165	0
bin	0.0017	8
bin	0.00175	0
bin	0.0018	0
bin	0.00185	0
bin	0.0019	0
bin	0.00195	0
bin	0.002	12
bin	0.00205	0
bin	0.0021	0
bin	0.00215	0
bin	0.0022	0
bin	0.00225	0
bin	0.0023	0
bin	0.00235	7
bin	0.0024	0
bin	0.00245	0
bin	0.0025	0
bin	0.00255	0
bin	0.0026	0
bin	0.00265	0
bin	0.0027	0
bin	0.00275	0
bin	0.0028	0
bin	0.00285	0
bin	0.0029	0
bin	0.00295	0
scalar RplNetwork36.host[2].wlan[0].mac.queue queueLength:max 1
attr interpolationmode sample-hold
attr source "count(packetPushed) - count(packetPopped) - count(packetRemoved) - count(packetDropped)"
attr title "queue length, max"
scalar RplNetwork36.host[2].wlan[0].mac.queue queueLength:timeavg 2.8087801288598e-05
attr interpolationmode sample-hold
attr source "count(packetPushed) - count(packetPopped) - count(packetRemoved) - count(packetDropped)"
attr title "queue length, timeavg"
scalar RplNetwork36.host[2].wlan[0].mac.queue packetPushed:count 81
attr interpolationmode none
attr title "packet pushed, count"
scalar RplNetwork36.host[2].wlan[0].mac.queue packetPushed:sum(packetBytes) 8913
attr interpolationmode none
attr title "packet pushed, sum(packetBytes)"
scalar RplNetwork36.host[2].wlan[0].mac.queue packetDropQueueOverflow:count 0
attr interpolationmode none
attr source packetDropReasonIsQueueOverflow(packetDropped)
attr title "packet drops: queue overflow, count"
scalar RplNetwork36.host[2].wlan[0].mac.queue packetDropQueueOverflow:sum(packetBytes) 0
attr interpolationmode none
attr source packetDropReasonIsQueueOverflow(packetDropped)
attr title "packet drops: queue overflow, sum(packetBytes)"
scalar RplNetwork36.host[2].wlan[0].mac.queue packetRemoved:count 0
attr interpolationmode none
attr title "packets removed, count"
scalar RplNetwork36.host[2].wlan[0].mac.queue packetRemoved:sum(packetBytes) 0
attr interpolationmode none
attr title "packets removed, sum(packetBytes)"
scalar RplNetwork36.host[2].wlan[0].mac nbTxFrames 87
scalar RplNetwork36.host[2].wlan[0].mac nbRxFrames 62
scalar RplNetwork36.host[2].wlan[0].mac nbDroppedFrames 0
scalar RplNetwork36.host[2].wlan[0].mac nbMissedAcks 0
scalar RplNetwork36.host[2].wlan[0].mac nbRecvdAcks 65
scalar RplNetwork36.host[2].wlan[0].mac nbTxAcks 1
scalar RplNetwork36.host[2].wlan[0].mac nbDuplicates 0
scalar RplNetwork36.host[2].wlan[0].mac meanBackoff 0.0010924137931034
scalar RplNetwork36.host[2].wlan[0].mac nbBackoffs 87
scalar RplNetwork36.host[2].wlan[0].mac backoffDurations 0.09504
scalar RplNetwork36.host[2].wlan[0].mac packetDropNotAddressToUs:count 252
attr interpolationmode none
attr source packetDropReasonIsNotAddressedToUs(packetDropped)
attr title "packet drop: not addressed to us, count"
scalar RplNetwork36.host[2].wlan[0].mac packetDropNotAddressToUs:sum(packetBytes) 21672
attr interpolationmode none
attr source packetDropReasonIsNotAddressedToUs(packetDropped)
attr title "packet drop: not addressed to us, sum(packetBytes)"
scalar RplNetwork36.host[2].wlan[0].mac packetDropIncorrectlyReceived:count 0
attr interpolationmode none
attr source packetDropReasonIsIncorrectlyReceived(packetDropped)
attr title "packet drop: incorrectly received, count"
scalar RplNetwork36.host[2].wlan[0].mac packetDropIncorrectlyReceived:sum(packetBytes) 0
attr interpolationmode none
attr source packetDropReasonIsIncorrectlyReceived(packetDropped)
attr title "packet drop: incorrectly received, sum(packetBytes)"
scalar RplNetwork36.host[2].wlan[0].mac packetDropQueueOverflow:count 0
attr interpolationmode none
attr source packetDropReasonIsQueueOverflow(packetDropped)
attr title "packet drop: queue overflow, count"
scalar RplNetwork36.host[2].wlan[0].mac packetDropQueueOverflow:sum(packetBytes) 0
attr interpolationmode none
attr source packetDropReasonIsQueueOverflow(packetDropped)
attr title "packet drop: queue overflow, sum(packetBytes)"
scalar RplNetwork36.host[2].wlan[0].mac packetDropRetryLimitReached:count 0
attr interpolationmode none
attr source packetDropReasonIsRetryLimitReached(packetDropped)
attr title "packet drop: retry limit reached, count"
scalar RplNetwork36.host[2].wlan[0].mac packetDropRetryLimitReached:sum(packetBytes) 0
attr interpolationmode none
attr source packetDropReasonIsRetryLimitReached(packetDropped)
attr title "packet drop: retry limit reached, sum(packetBytes)"
scalar RplNetwork36.host[2].wlan[0].mac packetDropBackoffLimitReached:count 0
attr interpolationmode none
attr source packetDropReasonIsCongestion(packetDropped)
attr title "packet drop: backoff limit reached, count"
scalar RplNetwork36.host[2].wlan[0].mac packetDropBackoffLimitReached:sum(packetBytes) 0
attr interpolationmode none
attr source packetDropReasonIsCongestion(packetDropped)
attr title "packet drop: backoff limit reached, sum(packetBytes)"
scalar RplNetwork36.host[2].wlan[0].mac linkBroken:count 0
attr interpolationmode none
attr source linkBroken
attr title "link break, count"
scalar RplNetwork36.host[2].wlan[0].radio radioMode:count 162
attr interpolationmode sample-hold
attr source radioModeChanged
attr title "Radio mode, count"
scalar RplNetwork36.host[2].wlan[0].radio receptionState:count 1450
attr interpolationmode sample-hold
attr source receptionStateChanged
attr title "Radio reception state, count"
scalar RplNetwork36.host[2].wlan[0].radio transmissionState:count 324
attr interpolationmode sample-hold
attr source transmissionStateChanged
attr title "Radio transmission state, count"
statistic RplNetwork36.host[2].wlan[0].radio minSnir:histogram
field count 363
field mean 695.58054880605
field stddev 32.127360468525
field min 85.158370824284
field max 697.26679791649
field sum 252495.7392166
field sqrsum 176004769.41469
attr source minimumSnir(packetSentToUpper)
attr title "Min SNIR, histogram"
bin	-inf	0
bin	0	0
bin	10	0
bin	20	0
bin	30	0
bin	40	0
bin	50	0
bin	60	0
bin	70	0
bin	80	1
bin	90	0
bin	100	0
bin	110	0
bin	120	0
bin	130	0
bin	140	0
bin	150	0
bin	160	0
bin	170	0
bin	180	0
bin	190	0
bin	200	0
bin	210	0
bin	220	0
bin	230	0
bin	240	0
bin	250	0
bin	260	0
bin	270	0
bin	280	0
bin	290	0
bin	300	0
bin	310	0
bin	320	0
bin	330	0
bin	340	0
bin	350	0
bin	360	0
bin	370	0
bin	380	0
bin	390	0
bin	400	0
bin	410	0
bin	420	0
bin	430	0
bin	440	0
bin	450	0
bin	460	0
bin	470	0
bin	480	0
bin	490	0
bin	500	0
bin	510	0
bin	520	0
bin	530	0
bin	540	0
bin	550	0
bin	560	0
bin	570	0
bin	580	0
bin	590	0
bin	600	0
bin	610	0
bin	620	0
bin	630	0
bin	640	0
bin	650	0
bin	660	0
bin	670	0
bin	680	0
bin	690	362
bin	700	0
bin	710	0
bin	720	0
bin	730	0
bin	740	0
bin	750	0
bin	760	0
bin	770	0
bin	780	0
bin	790	0
bin	800	0
bin	810	0
bin	820	0
bin	830	0
bin	840	0
bin	850	0
bin	860	0
statistic RplNetwork36.host[2].wlan[0].radio packetErrorRate:histogram
field count 363
field mean 0
field stddev 0
field min 0
field max 0
field sum 0
field sqrsum 0
attr source packetErrorRate(packetSentToUpper)
attr title "Packet error rate, histogram"
bin	-inf	0
bin	-0.5	0
bin	-0.48	0
bin	-0.46	0
bin	-0.44	0
bin	-0.42	0
bin	-0.4	0
bin	-0.38	0
bin	-0.36	0
bin	-0.34	0
bin	-0.32	0
bin	-0.3	0
bin	-0.28	0
bin	-0.26	0
bin	-0.24	0
bin	-0.22	0
bin	-0.2	0
bin	-0.18	0
bin	-0.16	0
bin	-0.14	0
bin	-0.12	0
bin	-0.1	0
bin	-0.08	0
bin	-0.06	0
bin	-0.04	0
bin	-0.02	0
bin	0	363
bin	0.02	0
bin	0.04	0
bin	0.06	0
bin	0.08	0
bin	0.1	0
bin	0.12	0
bin	0.14	0
bin	0.16	0
bin	0.18	0
bin	0.2	0
bin	0.22	0
bin	0.24	0
bin	0.26	0
bin	0.28	0
bin	0.3	0
bin	0.32	0
bin	0.34	0
bin	0.36	0
bin	0.38	0
bin	0.4	0
bin	0.42	0
bin	0.44	0
bin	0.46	0
bin	0.48	0
bin	0.5	0
statistic RplNetwork36.host[2].wlan[0].radio bitErrorRate:histogram
field count 363
field mean 0
field stddev 0
field min 0
field max 0
field sum 0
field sqrsum 0
attr source bitErrorRate(packetSentToUpper)
attr title "Bit error rate, histogram"
bin	-inf	0
bin	-0.5	0
bin	-0.48	0
bin	-0.46	0
bin	-0.44	0
bin	-0.42	0
bin	-0.4	0
bin	-0.38	0
bin	-0.36	0
bin	-0.34	0
bin	-0.32	0
bin	-0.3	0
bin	-0.28	0
bin	-0.26	0
bin	-0.24	0
bin	-0.22	0
bin	-0.2	0
bin	-0.18	0
bin	-0.16	0
bin	-0.14	0
bin	-0.12	0
bin	-0.1	0
bin	-0.08	0
bin	-0.06	0
bin	-0.04	0
bin	-0.02	0
bin	0	363
bin	0.02	0
bin	0.04	0
bin	0.06	0
bin	0.08	0
bin	0.1	0
bin	0.12	0
bin	0.14	0
bin	0.16	0
bin	0.18	0
bin	0.2	0
bin	0.22	0
bin	0.24	0
bin	0.26	0
bin	0.28	0
bin	0.3	0
bin	0.32	0
bin	0.34	0
bin	0.36	0
bin	0.38	0
bin	0.4	0
bin	0.42	0
bin	0.44	0
bin	0.46	0
bin	0.48	0
bin	0.5	0
statistic RplNetwork36.host[2].wlan[0].radio symbolErrorRate:histogram
field count 0
field mean -nan
field stddev -nan
field min -nan
field max -nan
field sum 0
field sqrsum 0
attr source symbolErrorRate(packetSentToUpper)
attr title "Symbol error rate, histogram"
bin	-inf	0
bin	0	0
bin	1	0
scalar RplNetwork36.host[2].ipv6.neighbourDiscovery startDad:count 0
attr title "DAD started, count"
scalar RplNetwork36.host[2].udp packetReceived:count 0
attr interpolationmode none
attr source packetReceived
attr title "packets received, count"
scalar RplNetwork36.host[2].udp packetReceived:sum(packetBytes) 0
attr interpolationmode none
attr source packetReceived
attr title "packets received, sum(packetBytes)"
scalar RplNetwork36.host[2].udp packetSent:count 63
attr interpolationmode none
attr source packetSent
attr title "packets sent, count"
scalar RplNetwork36.host[2].udp packetSent:sum(packetBytes) 4032
attr interpolationmode none
attr source packetSent
attr title "packets sent, sum(packetBytes)"
scalar RplNetwork36.host[2].udp passedUpPk:count 0
attr interpolationmode none
attr source packetSentToUpper
attr title "packets passed up, count"
scalar RplNetwork36.host[2].udp droppedPkWrongPort:count 0
attr interpolationmode none
attr source packetDropReasonIsNoPortFound(packetDropped)
attr title "packets dropped (wrong port), count"
scalar RplNetwork36.host[2].udp droppedPkBadChecksum:count 0
attr interpolationmode none
attr source packetDropReasonIsIncorrectlyReceived(packetDropped)
attr title "packets dropped (checksum error), count"
scalar RplNetwork36.host[2].app[0] "packets sent" 64
scalar RplNetwork36.host[2].app[0] "packets received" 0
scalar RplNetwork36.host[2].app[0] packetReceived:count 0
attr interpolationmode none
attr source packetReceived
attr title "packets received, count"
scalar RplNetwork36.host[2].app[0] packetReceived:sum(packetBytes) 0
attr interpolationmode none
attr source packetReceived
attr title "packets received, sum(packetBytes)"
statistic RplNetwork36.host[2].app[0] rcvdPkLifetime:stats
field count 0
field mean -nan
field stddev -nan
field min -nan
field max -nan
field sum 0
field sqrsum 0
attr interpolationmode none
attr source dataAge(packetReceived)
attr title "received packet lifetime, stats"
attr unit s
scalar RplNetwork36.host[2].app[0] packetSent:count 63
attr interpolationmode none
attr source packetSent
attr title "packets sent, count"
scalar RplNetwork36.host[2].app[0] packetSent:sum(packetBytes) 3528
attr interpolationmode none
attr source packetSent
attr title "packets sent, sum(packetBytes)"
scalar RplNetwork36.host[2].rpl rank 4
scalar RplNetwork36.host[2].rpl parentId 8
scalar RplNetwork36.host[2].rpl parentUnreachable:count 0
attr interpolationmode none
attr source parentUnreachable
attr title "Preferred parent unreachability detected, count"
scalar RplNetwork36.host[2].rpl rankUpdated:count 0
attr interpolationmode none
attr source rankUpdated
attr title "Rank is updated, count"
scalar RplNetwork36.host[2].rpl parentChanged:count 0
attr interpolationmode none
attr source parentChanged
attr title "Preferred parent has changed, count"
scalar RplNetwork36.host[2].rpl daoReceived:count 0
attr interpolationmode none
attr source daoReceived
attr title "DAO packets received, count"
scalar RplNetwork36.host[2].rpl dioReceived:count 13
attr interpolationmode none
attr source dioReceived
attr title "DIO packets received, count"
scalar RplNetwork36.host[3].energyStorage residualEnergyCapacity:last -7.1654745557608
attr interpolationmode linear
attr source residualEnergyCapacityChanged
attr title "Residual energy capacity, last"
scalar RplNetwork36.host[3].lo[0].lo rcvdPkFromHl:count 0
attr interpolationmode none
attr source packetReceivedFromUpper
attr title "packets received from higher layer, count"
scalar RplNetwork36.host[3].lo[0].lo rcvdPkFromHl:sum(packetBytes) 0
attr interpolationmode none
attr source packetReceivedFromUpper
attr title "packets received from higher layer, sum(packetBytes)"
scalar RplNetwork36.host[3].lo[0].lo passedUpPk:count 0
attr interpolationmode none
attr source packetSentToUpper
attr title "packets passed to higher layer, count"
scalar RplNetwork36.host[3].lo[0].lo passedUpPk:sum(packetBytes) 0
attr interpolationmode none
attr source packetSentToUpper
attr title "packets passed to higher layer, sum(packetBytes)"
scalar RplNetwork36.host[3].wlan[0].mac.queue packetPopped:count 78
attr interpolationmode none
attr title "packet popped, count"
scalar RplNetwork36.host[3].wlan[0].mac.queue packetPopped:sum(packetBytes) 8654
attr interpolationmode none
attr title "packet popped, sum(packetBytes)"
statistic RplNetwork36.host[3].wlan[0].mac.queue queueingTime:histogram
field count 78
field mean 0.0013054358974359
field stddev 0.00072292593771555
field min 0.000128
field max 0.002368
field sum 0.101824
field sqrsum 0.000173166592
attr interpolationmode none
attr source queueingTime(packetPopped)
attr title "queueing times, histogram"
attr unit s
bin	-inf	0
bin	0	0
bin	5e-05	0
bin	0.0001	7
bin	0.00015	0
bin	0.0002	0
bin	0.00025	0
bin	0.0003	0
bin	0.00035	0
bin	0.0004	10
bin	0.00045	0
bin	0.0005	0
bin	0.00055	0
bin	0.0006	0
bin	0.00065	0
bin	0.0007	0
bin	0.00075	10
bin	0.0008	0
bin	0.00085	0
bin	0.0009	0
bin	0.00095	0
bin	0.001	0
bin	0.00105	10
bin	0.0011	0
bin	0.00115	0
bin	0.0012	0
bin	0.00125	0
bin	0.0013	0
bin	0.00135	0
bin	0.0014	9
bin	0.00145	0
bin	0.0015	0
bin	0.00155	0
bin	0.0016	0
bin	0.00165	0
bin	0.0017	13
bin	0.00175	0
bin	0.0018	0
bin	0.00185	0
bin	0.0019	0
bin	0.00195	0
bin	0.002	7
bin	0.00205	0
bin	0.0021	0
bin	0.00215	0
bin	0.0022	0
bin	0.00225	0
bin	0.0023	0
bin	0.00235	12
bin	0.0024	0
bin	0.00245	0
bin	0.0025	0
bin	0.00255	0
bin	0.0026	0
bin	0.00265	0
bin	0.0027	0
bin	0.00275	0
bin	0.0028	0
bin	0.00285	0
bin	0.0029	0
bin	0.00295	0
scalar RplNetwork36.host[3].wlan[0].mac.queue queueLength:max 1
attr interpolationmode sample-hold
attr source "count(packetPushed) - count(packetPopped) - count(packetRemoved) - count(packetDropped)"
attr title "queue length, max"
scalar RplNetwork36.host[3].wlan[0].mac.queue queueLength:timeavg 2.9352415083359e-05
attr interpolationmode sample-hold
attr source "count(packetPushed) - count(packetPopped) - count(packetRemoved) - count(packetDropped)"
attr title "queue length, timeavg"
scalar RplNetwork36.host[3].wlan[0].mac.queue packetPushed:count 78
attr interpolationmode none
attr title "packet pushed, count"
scalar RplNetwork36.host[3].wlan[0].mac.queue packetPushed:sum(packetBytes) 8654
attr interpolationmode none
attr title "packet pushed, sum(packetBytes)"
scalar RplNetwork36.host[3].wlan[0].mac.queue packetDropQueueOverflow:count 0
attr interpolationmode none
attr source packetDropReasonIsQueueOverflow(packetDropped)
attr title "packet drops: queue overflow, count"
scalar RplNetwork36.host[3].wlan[0].mac.queue packetDropQueueOverflow:sum(packetBytes) 0
attr interpolationmode none
attr source packetDropReasonIsQueueOverflow(packetDropped)
attr title "packet drops: queue overflow, sum(packetBytes)"
scalar RplNetwork36.host[3].wlan[0].mac.queue packetRemoved:count 0
attr interpolationmode none
attr title "packets removed, count"
scalar RplNetwork36.host[3].wlan[0].mac.queue packetRemoved:sum(packetBytes) 0
attr interpolationmode none
attr title "packets removed, sum(packetBytes)"
scalar RplNetwork36.host[3].wlan[0].mac nbTxFrames 85
scalar RplNetwork36.host[3].wlan[0].mac nbRxFrames 60
scalar RplNetwork36.host[3].wlan[0].mac nbDroppedFrames 0
scalar RplNetwork36.host[3].wlan[0].mac nbMissedAcks 0
scalar RplNetwork36.host[3].wlan[0].mac nbRecvdAcks 65
scalar RplNetwork36.host[3].wlan[0].mac nbTxAcks 1
scalar RplNetwork36.host[3].wlan[0].mac nbDuplicates 0
scalar RplNetwork36.host[3].wlan[0].mac meanBackoff 0.0011557647058824
scalar RplNetwork36.host[3].wlan[0].mac nbBackoffs 85
scalar RplNetwork36.host[3].wlan[0].mac backoffDurations 0.09824
scalar RplNetwork36.host[3].wlan[0].mac packetDropNotAddressToUs:count 252
attr interpolationmode none
attr source packetDropReasonIsNotAddressedToUs(packetDropped)
attr title "packet drop: not addressed to us, count"
scalar RplNetwork36.host[3].wlan[0].mac packetDropNotAddressToUs:sum(packetBytes) 21672
attr interpolationmode none
attr source packetDropReasonIsNotAddressedToUs(packetDropped)
attr title "packet drop: not addressed to us, sum(packetBytes)"
scalar RplNetwork36.host[3].wlan[0].mac packetDropIncorrectlyReceived:count 0
attr interpolationmode none
attr source packetDropReasonIsIncorrectlyReceived(packetDropped)
attr title "packet drop: incorrectly received, count"
scalar RplNetwork36.host[3].wlan[0].mac packetDropIncorrectlyReceived:sum(packetBytes) 0
attr interpolationmode none
attr source packetDropReasonIsIncorrectlyReceived(packetDropped)
attr title "packet drop: incorrectly received, sum(packetBytes)"
scalar RplNetwork36.host[3].wlan[0].mac packetDropQueueOverflow:count 0
attr interpolationmode none
attr source packetDropReasonIsQueueOverflow(packetDropped)
attr title "packet drop: queue overflow, count"
scalar RplNetwork36.host[3].wlan[0].mac packetDropQueueOverflow:sum(packetBytes) 0
attr interpolationmode none
attr source packetDropReasonIsQueueOverflow(packetDropped)
attr title "packet drop: queue overflow, sum(packetBytes)"
scalar RplNetwork36.host[3].wlan[0].mac packetDropRetryLimitReached:count 0
attr interpolationmode none
attr source packetDropReasonIsRetryLimitReached(packetDropped)
attr title "packet drop: retry limit reached, count"
scalar RplNetwork36.host[3].wlan[0].mac packetDropRetryLimitReached:sum(packetBytes) 0
attr interpolationmode none
attr source packetDropReasonIsRetryLimitReached(packetDropped)
attr title "packet drop: retry limit reached, sum(packetBytes)"
scalar RplNetwork36.host[3].wlan[0].mac packetDropBackoffLimitReached:count 0
attr interpolationmode none
attr source packetDropReasonIsCongestion(packetDropped)
attr title "packet drop: backoff limit reached, count"
scalar RplNetwork36.host[3].wlan[0].mac packetDropBackoffLimitReached:sum(packetBytes) 0
attr interpolationmode none
attr source packetDropReasonIsCongestion(packetDropped)
attr title "packet drop: backoff limit reached, sum(packetBytes)"
scalar RplNetwork36.host[3].wlan[0].mac linkBroken:count 0
attr interpolationmode none
attr source linkBroken
attr title "link break, count"
scalar RplNetwork36.host[3].wlan[0].radio radioMode:count 156
attr interpolationmode sample-hold
attr source radioModeChanged
attr title "Radio mode, count"
scalar RplNetwork36.host[3].wlan[0].radio receptionState:count 1706
attr interpolationmode sample-hold
attr source receptionStateChanged
attr title "Radio reception state, count"
scalar RplNetwork36.host[3].wlan[0].radio transmissionState:count 312
attr interpolationmode sample-hold
attr source transmissionStateChanged
attr title "Radio transmission state, count"
statistic RplNetwork36.host[3].wlan[0].radio minSnir:histogram
field count 365
field mean 697.2667979165
field stddev 0
field min 697.26679791649
field max 697.26679791649
field sum 254502.38123952
field sqrsum 177456060.429
attr source minimumSnir(packetSentToUpper)
attr title "Min SNIR, histogram"
bin	-inf	0
bin	696.76	0
bin	696.78	0
bin	696.8	0
bin	696.82	0
bin	696.84	0
bin	696.86	0
bin	696.88	0
bin	696.9	0
bin	696.92	0
bin	696.94	0
bin	696.96	0
bin	696.98	0
bin	697	0
bin	697.02	0
bin	697.04	0
bin	697.06	0
bin	697.08	0
bin	697.1	0
bin	697.12	0
bin	697.14	0
bin	697.16	0
bin	697.18	0
bin	697.2	0
bin	697.22	0
bin	697.24	0
bin	697.26	365
bin	697.28	0
bin	697.3	0
bin	697.32	0
bin	697.34	0
bin	697.36	0
bin	697.38	0
bin	697.4	0
bin	697.42	0
bin	697.44	0
bin	697.46	0
bin	697.48	0
bin	697.5	0
bin	697.52	0
bin	697.54	0
bin	697.56	0
bin	697.58	0
bin	697.6	0
bin	697.62	0
bin	697.64	0
bin	697.66	0
bin	697.68	0
bin	697.7	0
bin	697.72	0
bin	697.74	0
bin	697.76	0
bin	697.78	0
statistic RplNetwork36.host[3].wlan[0].radio packetErrorRate:histogram
field count 365
field mean 0
field stddev 0
field min 0
field max 0
field sum 0
field sqrsum 0
attr source packetErrorRate(packetSentToUpper)
attr title "Packet error rate, histogram"
bin	-inf	0
bin	-0.5	0
bin	-0.48	0
bin	-0.46	0
bin	-0.44	0
bin	-0.42	0
bin	-0.4	0
bin	-0.38	0
bin	-0.36	0
bin	-0.34	0
bin	-0.32	0
bin	-0.3	0
bin	-0.28	0
bin	-0.26	0
bin	-0.24	0
bin	-0.22	0
bin	-0.2	0
bin	-0.18	0
bin	-0.16	0
bin	-0.14	0
bin	-0.12	0
bin	-0.1	0
bin	-0.08	0
bin	-0.06	0
bin	-0.04	0
bin	-0.02	0
bin	0	365
bin	0.02	0
bin	0.04	0
bin	0.06	0
bin	0.08	0
bin	0.1	0
bin	0.12	0
bin	0.14	0
bin	0.16	0
bin	0.18	0
bin	0.2	0
bin	0.22	0
bin	0.24	0
bin	0.26	0
bin	0.28	0
bin	0.3	0
bin	0.32	0
bin	0.34	0
bin	0.36	0
bin	0.38	0
bin	0.4	0
bin	0.42	0
bin	0.44	0
bin	0.46	0
bin	0.48	0
bin	0.5	0
statistic RplNetwork36.host[3].wlan[0].radio bitErrorRate:histogram
field count 365
field mean 0
field stddev 0
field min 0
field max 0
field sum 0
field sqrsum 0
attr source bitErrorRate(packetSentToUpper)
attr title "Bit error rate, histogram"
bin	-inf	0
bin	-0.5	0
bin	-0.48	0
bin	-0.46	0
bin	-0.44	0
bin	-0.42	0
bin	-0.4	0
bin	-0.38	0
bin	-0.36	0
bin	-0.34	0
bin	-0.32	0
bin	-0.3	0
bin	-0.28	0
bin	-0.26	0
bin	-0.24	0
bin	-0.22	0
bin	-0.2	0
bin	-0.18	0
bin	-0.16	0
bin	-0.14	0
bin	-0.12	0
bin	-0.1	0
bin	-0.08	0
bin	-0.06	0
bin	-0.04	0
bin	-0.02	0
bin	0	365
bin	0.02	0
bin	0.04	0
bin	0.06	0
bin	0.08	0
bin	0.1	0
bin	0.12	0
bin	0.14	0
bin	0.16	0
bin	0.18	0
bin	0.2	0
bin	0.22	0
bin	0.24	0
bin	0.26	0
bin	0.28	0
bin	0.3	0
bin	0.32	0
bin	0.34	0
bin	0.36	0
bin	0.38	0
bin	0.4	0
bin	0.42	0
bin	0.44	0
bin	0.46	0
bin	0.48	0
bin	0.5	0
statistic RplNetwork36.host[3].wlan[0].radio symbolErrorRate:histogram
field count 0
field mean -nan
field stddev -nan
field min -nan
field max -nan
field sum 0
field sqrsum 0
attr source symbolErrorRate(packetSentToUpper)
attr title "Symbol error rate, histogram"
bin	-inf	0
bin	0	0
bin	1	0
scalar RplNetwork36.host[3].ipv6.neighbourDiscovery startDad:count 0
attr title "DAD started, count"
scalar RplNetwork36.host[3].udp packetReceived:count 0
attr interpolationmode none
attr source packetReceived
attr title "packets received, count"
scalar RplNetwork36.host[3].udp packetReceived:sum(packetBytes) 0
attr interpolationmode none
attr source packetReceived
attr title "packets received, sum(packetBytes)"
scalar RplNetwork36.host[3].udp packetSent:count 63
attr interpolationmode none
attr source packetSent
attr title "packets sent, count"
scalar RplNetwork36.host[3].udp packetSent:sum(packetBytes) 4032
attr interpolationmode none
attr source packetSent
attr title "packets sent, sum(packetBytes)"
scalar RplNetwork36.host[3].udp passedUpPk:count 0
attr interpolationmode none
attr source packetSentToUpper
attr title "packets passed up, count"
scalar RplNetwork36.host[3].udp droppedPkWrongPort:count 0
attr interpolationmode none
attr source packetDropReasonIsNoPortFound(packetDropped)
attr title "packets dropped (wrong port), count"
scalar RplNetwork36.host[3].udp droppedPkBadChecksum:count 0
attr interpolationmode none
attr source packetDropReasonIsIncorrectlyReceived(packetDropped)
attr title "packets dropped (checksum error), count"
scalar RplNetwork36.host[3].app[0] "packets sent" 64
scalar RplNetwork36.host[3].app[0] "packets received" 0
scalar RplNetwork36.host[3].app[0] packetReceived:count 0
attr interpolationmode none
attr source packetReceived
attr title "packets received, count"
scalar RplNetwork36.host[3].app[0] packetReceived:sum(packetBytes) 0
attr interpolationmode none
attr source packetReceived
attr title "packets received, sum(packetBytes)"
statistic RplNetwork36.host[3].app[0] rcvdPkLifetime:stats
field count 0
field mean -nan
field stddev -nan
field min -nan
field max -nan
field sum 0
field sqrsum 0
attr interpolationmode none
attr source dataAge(packetReceived)
attr title "received packet lifetime, stats"
attr unit s
scalar RplNetwork36.host[3].app[0] packetSent:count 63
attr interpolationmode none
attr source packetSent
attr title "packets sent, count"
scalar RplNetwork36.host[3].app[0] packetSent:sum(packetBytes) 3528
attr interpolationmode none
attr source packetSent
attr title "packets sent, sum(packetBytes)"
scalar RplNetwork36.host[3].rpl rank 5
scalar RplNetwork36.host[3].rpl parentId 9
scalar RplNetwork36.host[3].rpl parentUnreachable:count 0
attr interpolationmode none
attr source parentUnreachable
attr title "Preferred parent unreachability detected, count"
scalar RplNetwork36.host[3].rpl rankUpdated:count 0
attr interpolationmode none
attr source rankUpdated
attr title "Rank is updated, count"
scalar RplNetwork36.host[3].rpl parentChanged:count 0
attr interpolationmode none
attr source parentChanged
attr title "Preferred parent has changed, count"
scalar RplNetwork36.host[3].rpl daoReceived:count 0
attr interpolationmode none
attr source daoReceived
attr title "DAO packets received, count"
scalar RplNetwork36.host[3].rpl dioReceived:count 16
attr interpolationmode none
attr source dioReceived
attr title "DIO packets received, count"
scalar RplNetwork36.host[4].energyStorage residualEnergyCapacity:last -7.1476663836768
attr interpolationmode linear
attr source residualEnergyCapacityChanged
attr title "Residual energy capacity, last"
scalar RplNetwork36.host[4].lo[0].lo rcvdPkFromHl:count 0
attr interpolationmode none
attr source packetReceivedFromUpper
attr title "packets received from higher layer, count"
scalar RplNetwork36.host[4].lo[0].lo rcvdPkFromHl:sum(packetBytes) 0
attr interpolationmode none
attr source packetReceivedFromUpper
attr title "packets received from higher layer, sum(packetBytes)"
scalar RplNetwork36.host[4].lo[0].lo passedUpPk:count 0
attr interpolationmode none
attr source packetSentToUpper
attr title "packets passed to higher layer, count"
scalar RplNetwork36.host[4].lo[0].lo passedUpPk:sum(packetBytes) 0
attr interpolationmode none
attr source packetSentToUpper
attr title "packets passed to higher layer, sum(packetBytes)"
scalar RplNetwork36.host[4].wlan[0].mac.queue packetPopped:count 80
attr interpolationmode none
attr title "packet popped, count"
scalar RplNetwork36.host[4].wlan[0].mac.queue packetPopped:sum(packetBytes) 8800
attr interpolationmode none
attr title "packet popped, sum(packetBytes)"
statistic RplNetwork36.host[4].wlan[0].mac.queue queueingTime:histogram
field count 80
field mean 0.00134
field stddev 0.00067871509281523
field min 0.000128
field max 0.002368
field sum 0.1072
field sqrsum 0.00018003968
attr interpolationmode none
attr source queueingTime(packetPopped)
attr title "queueing times, histogram"
attr unit s
bin	-inf	0
bin	0	0
bin	5e-05	0
bin	0.0001	4
bin	0.00015	0
bin	0.0002	0
bin	0.00025	0
bin	0.0003	0
bin	0.00035	0
bin	0.0004	10
bin	0.00045	0
bin	0.0005	0
bin	0.00055	0
bin	0.0006	0
bin	0.00065	0
bin	0.0007	0
bin	0.00075	12
bin	0.0008	0
bin	0.00085	0
bin	0.0009	0
bin	0.00095	0
bin	0.001	0
bin	0.00105	11
bin	0.0011	0
bin	0.00115	0
bin	0.0012	0
bin	0.00125	0
bin	0.0013	0
bin	0.00135	0
bin	0.0014	9
bin	0.00145	0
bin	0.0015	0
bin	0.00155	0
bin	0.0016	0
bin	0.00165	0
bin	0.0017	15
bin	0.00175	0
bin	0.0018	0
bin	0.00185	0
bin	0.0019	0
bin	0.00195	0
bin	0.002	8
bin	0.00205	0
bin	0.0021	0
bin	0.00215	0
bin	0.0022	0
bin	0.00225	0
bin	0.0023	0
bin	0.00235	11
bin	0.0024	0
bin	0.00245	0
bin	0.0025	0
bin	0.00255	0
bin	0.0026	0
bin	0.00265	0
bin	0.0027	0
bin	0.00275	0
bin	0.0028	0
bin	0.00285	0
bin	0.0029	0
bin	0.00295	0
[...]
attr interpolationmode sample-hold
attr source receptionStateChanged
attr title "Radio reception state, count"
scalar RplNetwork36.host[34].wlan[0].radio transmissionState:count 568
attr interpolationmode sample-hold
attr source transmissionStateChanged
attr title "Radio transmission state, count"
statistic RplNetwork36.host[34].wlan[0].radio minSnir:histogram
field count 298
field mean 697.2667979165
field stddev 0
field min 697.26679791649
field max 697.26679791649
field sum 207785.50577912
field sqrsum 144881934.26806
attr source minimumSnir(packetSentToUpper)
attr title "Min SNIR, histogram"
bin	-inf	0
bin	696.76	0
bin	696.78	0
bin	696.8	0
bin	696.82	0
bin	696.84	0
bin	696.86	0
bin	696.88	0
bin	696.9	0
bin	696.92	0
bin	696.94	0
bin	696.96	0
bin	696.98	0
bin	697	0
bin	697.02	0
bin	697.04	0
bin	697.06	0
bin	697.08	0
bin	697.1	0
bin	697.12	0
bin	697.14	0
bin	697.16	0
bin	697.18	0
bin	697.2	0
bin	697.22	0
bin	697.24	0
bin	697.26	298
bin	697.28	0
bin	697.3	0
bin	697.32	0
bin	697.34	0
bin	697.36	0
bin	697.38	0
bin	697.4	0
bin	697.42	0
bin	697.44	0
bin	697.46	0
bin	697.48	0
bin	697.5	0
bin	697.52	0
bin	697.54	0
bin	697.56	0
bin	697.58	0
bin	697.6	0
bin	697.62	0
bin	697.64	0
bin	697.66	0
bin	697.68	0
bin	697.7	0
bin	697.72	0
bin	697.74	0
bin	697.76	0
bin	697.78	0
statistic RplNetwork36.host[34].wlan[0].radio packetErrorRate:histogram
field count 298
field mean 0
field stddev 0
field min 0
field max 0
field sum 0
field sqrsum 0
attr source packetErrorRate(packetSentToUpper)
attr title "Packet error rate, histogram"
bin	-inf	0
bin	-0.5	0
bin	-0.48	0
bin	-0.46	0
bin	-0.44	0
bin	-0.42	0
bin	-0.4	0
bin	-0.38	0
bin	-0.36	0
bin	-0.34	0
bin	-0.32	0
bin	-0.3	0
bin	-0.28	0
bin	-0.26	0
bin	-0.24	0
bin	-0.22	0
bin	-0.2	0
bin	-0.18	0
bin	-0.16	0
bin	-0.14	0
bin	-0.12	0
bin	-0.1	0
bin	-0.08	0
bin	-0.06	0
bin	-0.04	0
bin	-0.02	0
bin	0	298
bin	0.02	0
bin	0.04	0
bin	0.06	0
bin	0.08	0
bin	0.1	0
bin	0.12	0
bin	0.14	0
bin	0.16	0
bin	0.18	0
bin	0.2	0
bin	0.22	0
bin	0.24	0
bin	0.26	0
bin	0.28	0
bin	0.3	0
bin	0.32	0
bin	0.34	0
bin	0.36	0
bin	0.38	0
bin	0.4	0
bin	0.42	0
bin	0.44	0
bin	0.46	0
bin	0.48	0
bin	0.5	0
statistic RplNetwork36.host[34].wlan[0].radio bitErrorRate:histogram
field count 298
field mean 0
field stddev 0
field min 0
field max 0
field sum 0
field sqrsum 0
attr source bitErrorRate(packetSentToUpper)
attr title "Bit error rate, histogram"
bin	-inf	0
bin	-0.5	0
bin	-0.48	0
bin	-0.46	0
bin	-0.44	0
bin	-0.42	0
bin	-0.4	0
bin	-0.38	0
bin	-0.36	0
bin	-0.34	0
bin	-0.32	0
bin	-0.3	0
bin	-0.28	0
bin	-0.26	0
bin	-0.24	0
bin	-0.22	0
bin	-0.2	0
bin	-0.18	0
bin	-0.16	0
bin	-0.14	0
bin	-0.12	0
bin	-0.1	0
bin	-0.08	0
bin	-0.06	0
bin	-0.04	0
bin	-0.02	0
bin	0	298
bin	0.02	0
bin	0.04	0
bin	0.06	0
bin	0.08	0
bin	0.1	0
bin	0.12	0
bin	0.14	0
bin	0.16	0
bin	0.18	0
bin	0.2	0
bin	0.22	0
bin	0.24	0
bin	0.26	0
bin	0.28	0
bin	0.3	0
bin	0.32	0
bin	0.34	0
bin	0.36	0
bin	0.38	0
bin	0.4	0
bin	0.42	0
bin	0.44	0
bin	0.46	0
bin	0.48	0
bin	0.5	0
statistic RplNetwork36.host[34].wlan[0].radio symbolErrorRate:histogram
field count 0
field mean -nan
field stddev -nan
field min -nan
field max -nan
field sum 0
field sqrsum 0
attr source symbolErrorRate(packetSentToUpper)
attr title "Symbol error rate, histogram"
bin	-inf	0
bin	0	0
bin	1	0
scalar RplNetwork36.host[34].ipv6.neighbourDiscovery startDad:count 0
attr title "DAD started, count"
scalar RplNetwork36.host[34].udp packetReceived:count 0
attr interpolationmode none
attr source packetReceived
attr title "packets received, count"
scalar RplNetwork36.host[34].udp packetReceived:sum(packetBytes) 0
attr interpolationmode none
attr source packetReceived
attr title "packets received, sum(packetBytes)"
scalar RplNetwork36.host[34].udp packetSent:count 63
attr interpolationmode none
attr source packetSent
attr title "packets sent, count"
scalar RplNetwork36.host[34].udp packetSent:sum(packetBytes) 4032
attr interpolationmode none
attr source packetSent
attr title "packets sent, sum(packetBytes)"
scalar RplNetwork36.host[34].udp passedUpPk:count 0
attr interpolationmode none
attr source packetSentToUpper
attr title "packets passed up, count"
scalar RplNetwork36.host[34].udp droppedPkWrongPort:count 0
attr interpolationmode none
attr source packetDropReasonIsNoPortFound(packetDropped)
attr title "packets dropped (wrong port), count"
scalar RplNetwork36.host[34].udp droppedPkBadChecksum:count 0
attr interpolationmode none
attr source packetDropReasonIsIncorrectlyReceived(packetDropped)
attr title "packets dropped (checksum error), count"
scalar RplNetwork36.host[34].app[0] "packets sent" 64
scalar RplNetwork36.host[34].app[0] "packets received" 0
scalar RplNetwork36.host[34].app[0] packetReceived:count 0
attr interpolationmode none
attr source packetReceived
attr title "packets received, count"
scalar RplNetwork36.host[34].app[0] packetReceived:sum(packetBytes) 0
attr interpolationmode none
attr source packetReceived
attr title "packets received, sum(packetBytes)"
statistic RplNetwork36.host[34].app[0] rcvdPkLifetime:stats
field count 0
field mean -nan
field stddev -nan
field min -nan
field max -nan
field sum 0
field sqrsum 0
attr interpolationmode none
attr source dataAge(packetReceived)
attr title "received packet lifetime, stats"
attr unit s
scalar RplNetwork36.host[34].app[0] packetSent:count 63
attr interpolationmode none
attr source packetSent
attr title "packets sent, count"
scalar RplNetwork36.host[34].app[0] packetSent:sum(packetBytes) 3528
attr interpolationmode none
attr source packetSent
attr title "packets sent, sum(packetBytes)"
scalar RplNetwork36.host[34].rpl rank 5
scalar RplNetwork36.host[34].rpl parentId 33
scalar RplNetwork36.host[34].rpl parentUnreachable:count 0
attr interpolationmode none
attr source parentUnreachable
attr title "Preferred parent unreachability detected, count"
scalar RplNetwork36.host[34].rpl rankUpdated:count 0
attr interpolationmode none
attr source rankUpdated
attr title "Rank is updated, count"
scalar RplNetwork36.host[34].rpl parentChanged:count 0
attr interpolationmode none
attr source parentChanged
attr title "Preferred parent has changed, count"
scalar RplNetwork36.host[34].rpl daoReceived:count 0
attr interpolationmode none
attr source daoReceived
attr title "DAO packets received, count"
scalar RplNetwork36.host[34].rpl dioReceived:count 14
attr interpolationmode none
attr source dioReceived
attr title "DIO packets received, count"
scalar RplNetwork36.host[35].energyStorage residualEnergyCapacity:last -7.1162817805118
attr interpolationmode linear
attr source residualEnergyCapacityChanged
attr title "Residual energy capacity, last"
scalar RplNetwork36.host[35].lo[0].lo rcvdPkFromHl:count 0
attr interpolationmode none
attr source packetReceivedFromUpper
attr title "packets received from higher layer, count"
scalar RplNetwork36.host[35].lo[0].lo rcvdPkFromHl:sum(packetBytes) 0
attr interpolationmode none
attr source packetReceivedFromUpper
attr title "packets received from higher layer, sum(packetBytes)"
scalar RplNetwork36.host[35].lo[0].lo passedUpPk:count 0
attr interpolationmode none
attr source packetSentToUpper
attr title "packets passed to higher layer, count"
scalar RplNetwork36.host[35].lo[0].lo passedUpPk:sum(packetBytes) 0
attr interpolationmode none
attr source packetSentToUpper
attr title "packets passed to higher layer, sum(packetBytes)"
scalar RplNetwork36.host[35].wlan[0].mac.queue packetPopped:count 79
attr interpolationmode none
attr title "packet popped, count"
scalar RplNetwork36.host[35].wlan[0].mac.queue packetPopped:sum(packetBytes) 8687
attr interpolationmode none
attr title "packet popped, sum(packetBytes)"
statistic RplNetwork36.host[35].wlan[0].mac.queue queueingTime:histogram
field count 79
field mean 0.0012338227848101
field stddev 0.00066375892981571
field min 0.000128
field max 0.002368
field sum 0.097472
field sqrsum 0.000154628096
attr interpolationmode none
attr source queueingTime(packetPopped)
attr title "queueing times, histogram"
attr unit s
bin	-inf	0
bin	0	0
bin	5e-05	0
bin	0.0001	6
bin	0.00015	0
bin	0.0002	0
bin	0.00025	0
bin	0.0003	0
bin	0.00035	0
bin	0.0004	5
bin	0.00045	0
bin	0.0005	0
bin	0.00055	0
bin	0.0006	0
bin	0.00065	0
bin	0.0007	0
bin	0.00075	20
bin	0.0008	0
bin	0.00085	0
bin	0.0009	0
bin	0.00095	0
bin	0.001	0
bin	0.00105	17
bin	0.0011	0
bin	0.00115	0
bin	0.0012	0
bin	0.00125	0
bin	0.0013	0
bin	0.00135	0
bin	0.0014	5
bin	0.00145	0
bin	0.0015	0
bin	0.00155	0
bin	0.0016	0
bin	0.00165	0
bin	0.0017	6
bin	0.00175	0
bin	0.0018	0
bin	0.00185	0
bin	0.0019	0
bin	0.00195	0
bin	0.002	13
bin	0.00205	0
bin	0.0021	0
bin	0.00215	0
bin	0.0022	0
bin	0.00225	0
bin	0.0023	0
bin	0.00235	7
bin	0.0024	0
bin	0.00245	0
bin	0.0025	0
bin	0.00255	0
bin	0.0026	0
bin	0.00265	0
bin	0.0027	0
bin	0.00275	0
bin	0.0028	0
bin	0.00285	0
bin	0.0029	0
bin	0.00295	0
scalar RplNetwork36.host[35].wlan[0].mac.queue queueLength:max 1
attr interpolationmode sample-hold
attr source "count(packetPushed) - count(packetPopped) - count(packetRemoved) - count(packetDropped)"
attr title "queue length, max"
scalar RplNetwork36.host[35].wlan[0].mac.queue queueLength:timeavg 2.7739326539932e-05
attr interpolationmode sample-hold
attr source "count(packetPushed) - count(packetPopped) - count(packetRemoved) - count(packetDropped)"
attr title "queue length, timeavg"
scalar RplNetwork36.host[35].wlan[0].mac.queue packetPushed:count 79
attr interpolationmode none
attr title "packet pushed, count"
scalar RplNetwork36.host[35].wlan[0].mac.queue packetPushed:sum(packetBytes) 8687
attr interpolationmode none
attr title "packet pushed, sum(packetBytes)"
scalar RplNetwork36.host[35].wlan[0].mac.queue packetDropQueueOverflow:count 0
attr interpolationmode none
attr source packetDropReasonIsQueueOverflow(packetDropped)
attr title "packet drops: queue overflow, count"
scalar RplNetwork36.host[35].wlan[0].mac.queue packetDropQueueOverflow:sum(packetBytes) 0
attr interpolationmode none
attr source packetDropReasonIsQueueOverflow(packetDropped)
attr title "packet drops: queue overflow, sum(packetBytes)"
scalar RplNetwork36.host[35].wlan[0].mac.queue packetRemoved:count 0
attr interpolationmode none
attr title "packets removed, count"
scalar RplNetwork36.host[35].wlan[0].mac.queue packetRemoved:sum(packetBytes) 0
attr interpolationmode none
attr title "packets removed, sum(packetBytes)"
scalar RplNetwork36.host[35].wlan[0].mac nbTxFrames 85
scalar RplNetwork36.host[35].wlan[0].mac nbRxFrames 43
scalar RplNetwork36.host[35].wlan[0].mac nbDroppedFrames 0
scalar RplNetwork36.host[35].wlan[0].mac nbMissedAcks 0
scalar RplNetwork36.host[35].wlan[0].mac nbRecvdAcks 64
scalar RplNetwork36.host[35].wlan[0].mac nbTxAcks 1
scalar RplNetwork36.host[35].wlan[0].mac nbDuplicates 0
scalar RplNetwork36.host[35].wlan[0].mac meanBackoff 0.0011068235294118
scalar RplNetwork36.host[35].wlan[0].mac nbBackoffs 85
scalar RplNetwork36.host[35].wlan[0].mac backoffDurations 0.09408
scalar RplNetwork36.host[35].wlan[0].mac packetDropNotAddressToUs:count 126
attr interpolationmode none
attr source packetDropReasonIsNotAddressedToUs(packetDropped)
attr title "packet drop: not addressed to us, count"
scalar RplNetwork36.host[35].wlan[0].mac packetDropNotAddressToUs:sum(packetBytes) 14238
attr interpolationmode none
attr source packetDropReasonIsNotAddressedToUs(packetDropped)
attr title "packet drop: not addressed to us, sum(packetBytes)"
scalar RplNetwork36.host[35].wlan[0].mac packetDropIncorrectlyReceived:count 0
attr interpolationmode none
attr source packetDropReasonIsIncorrectlyReceived(packetDropped)
attr title "packet drop: incorrectly received, count"
scalar RplNetwork36.host[35].wlan[0].mac packetDropIncorrectlyReceived:sum(packetBytes) 0
attr interpolationmode none
attr source packetDropReasonIsIncorrectlyReceived(packetDropped)
attr title "packet drop: incorrectly received, sum(packetBytes)"
scalar RplNetwork36.host[35].wlan[0].mac packetDropQueueOverflow:count 0
attr interpolationmode none
attr source packetDropReasonIsQueueOverflow(packetDropped)
attr title "packet drop: queue overflow, count"
scalar RplNetwork36.host[35].wlan[0].mac packetDropQueueOverflow:sum(packetBytes) 0
attr interpolationmode none
attr source packetDropReasonIsQueueOverflow(packetDropped)
attr title "packet drop: queue overflow, sum(packetBytes)"
scalar RplNetwork36.host[35].wlan[0].mac packetDropRetryLimitReached:count 0
attr interpolationmode none
attr source packetDropReasonIsRetryLimitReached(packetDropped)
attr title "packet drop: retry limit reached, count"
scalar RplNetwork36.host[35].wlan[0].mac packetDropRetryLimitReached:sum(packetBytes) 0
attr interpolationmode none
attr source packetDropReasonIsRetryLimitReached(packetDropped)
attr title "packet drop: retry limit reached, sum(packetBytes)"
scalar RplNetwork36.host[35].wlan[0].mac packetDropBackoffLimitReached:count 0
attr interpolationmode none
attr source packetDropReasonIsCongestion(packetDropped)
attr title "packet drop: backoff limit reached, count"
scalar RplNetwork36.host[35].wlan[0].mac packetDropBackoffLimitReached:sum(packetBytes) 0
attr interpolationmode none
attr source packetDropReasonIsCongestion(packetDropped)
attr title "packet drop: backoff limit reached, sum(packetBytes)"
scalar RplNetwork36.host[35].wlan[0].mac linkBroken:count 0
attr interpolationmode none
attr source linkBroken
attr title "link break, count"
scalar RplNetwork36.host[35].wlan[0].radio radioMode:count 158
attr interpolationmode sample-hold
attr source radioModeChanged
attr title "Radio mode, count"
scalar RplNetwork36.host[35].wlan[0].radio receptionState:count 762
attr interpolationmode sample-hold
attr source receptionStateChanged
attr title "Radio reception state, count"
scalar RplNetwork36.host[35].wlan[0].radio transmissionState:count 316
attr interpolationmode sample-hold
attr source transmissionStateChanged
attr title "Radio transmission state, count"
statistic RplNetwork36.host[35].wlan[0].radio minSnir:histogram
field count 223
field mean 697.2667979165
field stddev 0
field min 697.26679791649
field max 697.26679791649
field sum 155490.49593538
field sqrsum 108418360.20731
attr source minimumSnir(packetSentToUpper)
attr title "Min SNIR, histogram"
bin	-inf	0
bin	696.76	0
bin	696.78	0
bin	696.8	0
bin	696.82	0
bin	696.84	0
bin	696.86	0
bin	696.88	0
bin	696.9	0
bin	696.92	0
bin	696.94	0
bin	696.96	0
bin	696.98	0
bin	697	0
bin	697.02	0
bin	697.04	0
bin	697.06	0
bin	697.08	0
bin	697.1	0
bin	697.12	0
bin	697.14	0
bin	697.16	0
bin	697.18	0
bin	697.2	0
bin	697.22	0
bin	697.24	0
bin	697.26	223
bin	697.28	0
bin	697.3	0
bin	697.32	0
bin	697.34	0
bin	697.36	0
bin	697.38	0
bin	697.4	0
bin	697.42	0
bin	697.44	0
bin	697.46	0
bin	697.48	0
bin	697.5	0
bin	697.52	0
bin	697.54	0
bin	697.56	0
bin	697.58	0
bin	697.6	0
bin	697.62	0
bin	697.64	0
bin	697.66	0
bin	697.68	0
bin	697.7	0
bin	697.72	0
bin	697.74	0
bin	697.76	0
bin	697.78	0
statistic RplNetwork36.host[35].wlan[0].radio packetErrorRate:histogram
field count 223
field mean 0
field stddev 0
field min 0
field max 0
field sum 0
field sqrsum 0
attr source packetErrorRate(packetSentToUpper)
attr title "Packet error rate, histogram"
bin	-inf	0
bin	-0.5	0
bin	-0.48	0
bin	-0.46	0
bin	-0.44	0
bin	-0.42	0
bin	-0.4	0
bin	-0.38	0
bin	-0.36	0
bin	-0.34	0
bin	-0.32	0
bin	-0.3	0
bin	-0.28	0
bin	-0.26	0
bin	-0.24	0
bin	-0.22	0
bin	-0.2	0
bin	-0.18	0
bin	-0.16	0
bin	-0.14	0
bin	-0.12	0
bin	-0.1	0
bin	-0.08	0
bin	-0.06	0
bin	-0.04	0
bin	-0.02	0
bin	0	223
bin	0.02	0
bin	0.04	0
bin	0.06	0
bin	0.08	0
bin	0.1	0
bin	0.12	0
bin	0.14	0
bin	0.16	0
bin	0.18	0
bin	0.2	0
bin	0.22	0
bin	0.24	0
bin	0.26	0
bin	0.28	0
bin	0.3	0
bin	0.32	0
bin	0.34	0
bin	0.36	0
bin	0.38	0
bin	0.4	0
bin	0.42	0
bin	0.44	0
bin	0.46	0
bin	0.48	0
bin	0.5	0
statistic RplNetwork36.host[35].wlan[0].radio bitErrorRate:histogram
field count 223
field mean 0
field stddev 0
field min 0
field max 0
field sum 0
field sqrsum 0
attr source bitErrorRate(packetSentToUpper)
attr title "Bit error rate, histogram"
bin	-inf	0
bin	-0.5	0
bin	-0.48	0
bin	-0.46	0
bin	-0.44	0
bin	-0.42	0
bin	-0.4	0
bin	-0.38	0
bin	-0.36	0
bin	-0.34	0
bin	-0.32	0
bin	-0.3	0
bin	-0.28	0
bin	-0.26	0
bin	-0.24	0
bin	-0.22	0
bin	-0.2	0
bin	-0.18	0
bin	-0.16	0
bin	-0.14	0
bin	-0.12	0
bin	-0.1	0
bin	-0.08	0
bin	-0.06	0
bin	-0.04	0
bin	-0.02	0
bin	0	223
bin	0.02	0
bin	0.04	0
bin	0.06	0
bin	0.08	0
bin	0.1	0
bin	0.12	0
bin	0.14	0
bin	0.16	0
bin	0.18	0
bin	0.2	0
bin	0.22	0
bin	0.24	0
bin	0.26	0
bin	0.28	0
bin	0.3	0
bin	0.32	0
bin	0.34	0
bin	0.36	0
bin	0.38	0
bin	0.4	0
bin	0.42	0
bin	0.44	0
bin	0.46	0
bin	0.48	0
bin	0.5	0
statistic RplNetwork36.host[35].wlan[0].radio symbolErrorRate:histogram
field count 0
field mean -nan
field stddev -nan
field min -nan
field max -nan
field sum 0
field sqrsum 0
attr source symbolErrorRate(packetSentToUpper)
attr title "Symbol error rate, histogram"
bin	-inf	0
bin	0	0
bin	1	0
scalar RplNetwork36.host[35].ipv6.neighbourDiscovery startDad:count 0
attr title "DAD started, count"
scalar RplNetwork36.host[35].udp packetReceived:count 0
attr interpolationmode none
attr source packetReceived
attr title "packets received, count"
scalar RplNetwork36.host[35].udp packetReceived:sum(packetBytes) 0
attr interpolationmode none
attr source packetReceived
attr title "packets received, sum(packetBytes)"
scalar RplNetwork36.host[35].udp packetSent:count 63
attr interpolationmode none
attr source packetSent
attr title "packets sent, count"
scalar RplNetwork36.host[35].udp packetSent:sum(packetBytes) 4032
attr interpolationmode none
attr source packetSent
attr title "packets sent, sum(packetBytes)"
scalar RplNetwork36.host[35].udp passedUpPk:count 0
attr interpolationmode none
attr source packetSentToUpper
attr title "packets passed up, count"
scalar RplNetwork36.host[35].udp droppedPkWrongPort:count 0
attr interpolationmode none
attr source packetDropReasonIsNoPortFound(packetDropped)
attr title "packets dropped (wrong port), count"
scalar RplNetwork36.host[35].udp droppedPkBadChecksum:count 0
attr interpolationmode none
attr source packetDropReasonIsIncorrectlyReceived(packetDropped)
attr title "packets dropped (checksum error), count"
scalar RplNetwork36.host[35].app[0] "packets sent" 63
scalar RplNetwork36.host[35].app[0] "packets received" 0
scalar RplNetwork36.host[35].app[0] packetReceived:count 0
attr interpolationmode none
attr source packetReceived
attr title "packets received, count"
scalar RplNetwork36.host[35].app[0] packetReceived:sum(packetBytes) 0
attr interpolationmode none
attr source packetReceived
attr title "packets received, sum(packetBytes)"
statistic RplNetwork36.host[35].app[0] rcvdPkLifetime:stats
field count 0
field mean -nan
field stddev -nan
field min -nan
field max -nan
field sum 0
field sqrsum 0
attr interpolationmode none
attr source dataAge(packetReceived)
attr title "received packet lifetime, stats"
attr unit s
scalar RplNetwork36.host[35].app[0] packetSent:count 63
attr interpolationmode none
attr source packetSent
attr title "packets sent, count"
scalar RplNetwork36.host[35].app[0] packetSent:sum(packetBytes) 3528
attr interpolationmode none
attr source packetSent
attr title "packets sent, sum(packetBytes)"
scalar RplNetwork36.host[35].rpl rank 6
scalar RplNetwork36.host[35].rpl parentId 34
scalar RplNetwork36.host[35].rpl parentUnreachable:count 0
attr interpolationmode none
attr source parentUnreachable
attr title "Preferred parent unreachability detected, count"
scalar RplNetwork36.host[35].rpl rankUpdated:count 0
attr interpolationmode none
attr source rankUpdated
attr title "Rank is updated, count"
scalar RplNetwork36.host[35].rpl parentChanged:count 0
attr interpolationmode none
attr source parentChanged
attr title "Preferred parent has changed, count"
scalar RplNetwork36.host[35].rpl daoReceived:count 0
attr interpolationmode none
attr source daoReceived
attr title "DAO packets received, count"
scalar RplNetwork36.host[35].rpl dioReceived:count 11
attr interpolationmode none
attr source dioReceived
attr title "DIO packets received, count"

