version 2
run _MP2P_Static_BLACKHOLE_100-999-20260528-21:42:35-11248
attr configname _MP2P_Static_BLACKHOLE_100
attr datetime 20260528-21:42:35
attr experiment _MP2P_Static_BLACKHOLE_100
attr inifile omnetpp_RPL_MP2P_100.ini
attr iterationvars ""
attr iterationvarsf ""
attr measurement ""
attr network RplNetwork100
attr processid 11248
attr repetition 999
attr replication #999
attr resultdir results
attr runnumber 999
attr seedset 999
param **.host[*].numApps 1
param **.host[*].app[0].typename "\"UdpBasicApp\""
param **.host[*].app[0].destPort 1000
param **.host[*].app[0].messageLength 56B
param **.host[*].app[0].sendInterval 55s
param **.host[*].app[0].startTime uniform(300s,400s)
param **.host[*].app[0].stopTime 3550s
param **.sink[*].numApps 1
param **.sink[*].app[0].typename "\"UdpSink\""
param **.sink[*].app[0].localPort 1000
param **.host[0..3].app[0].destAddresses "\"host[4]\""
param **.host[5..45].app[0].destAddresses "\"host[4]\""
param **.host[56..99].app[0].destAddresses "\"sink[0]\""
param **.host[4].numApps 0
param **.host[*].numApps 1
param **.host[*].app[0].typename "\"UdpBasicApp\""
param **.host[*].app[0].destAddresses "\"sink[0]\""
param **.host[*].app[0].destPort 1000
param **.host[*].app[0].messageLength 56B
param **.host[*].app[0].sendInterval 55s
param **.host[*].app[0].startTime uniform(0s,90s)
param **.sink[*].numApps 1
param **.sink[*].app[0].typename "\"UdpSink\""
param **.sink[*].app[0].localPort 1000
param **.host[*].app[0].recordStats true
param **.sink[*].app[0].recordStats true
param **.host[*].energyStorage.typename "\"IdealEpEnergyStorage\""
param **.host[*].energyStorage.nominalCapacity 1000J
param **.host[*].energyStorage.initialCapacity 1000J
param **.host[*].wlan[*].radio.energyConsumer.typename "\"StateBasedEpEnergyConsumer\""
param **.numNodes 100
param **.hasIpv6 true
param **.hasIpv4 false
param **.mtu 1500B
param **.neighbourDiscovery.raEnabled false
param **.neighbourDiscovery.addRandomDelays true
param **.neighbourDiscovery.skipDad true
param **.radioMedium.typename "\"Ieee802154NarrowbandDimensionalRadioMedium\""
param **.radio.typename "\"Ieee802154NarrowbandDimensionalRadio\""
param **.radioMedium.backgroundNoise.power -110dBm
param **.radioMedium.attenuation.typename "\"LogNormalShadowing\""
param **.radioMedium.attenuation.pathLossExponent 3.5
param **.radioMedium.attenuation.sigma 6.0
param **.wlan[*].typename "\"Ieee802154NarrowbandInterface\""
param **.wlan[*].mac.typename "\"Ieee802154Mac\""
param **.wlan[0].radio.transmitter.bitrate 250kbps
param **.wlan[0].radio.receiver.sensitivity -85dBm
param **.wlan[0].radio.transmitter.power 1mW
param **.sink[*].rpl.isRoot true
param **.sink[*].rpl.storing true
param **.rpl.numDaoRetransmitAttempts 10
param **.rpl.daoEnabled true
param **.rpl.poisoning false
param **.rpl.useBackupAsPreferred false
param **.rpl.networkProtocolModule "\"^.ipv6.ipv6\""
param **.rpl.routingTableModule "\"^.ipv6.routingTable\""
param **.rpl.drawConnectors true
param **.numSinks 1
param **.sensor[*].mobility.typename "\"StationaryMobility\""
param **.sink[*].mobility.typename "\"StationaryMobility\""
param **.mobility.constraintAreaMinX 0m
param **.mobility.constraintAreaMinY 0m
param **.mobility.constraintAreaMaxX 800m
param **.mobility.constraintAreaMaxY 800m
param *.sink[*].mobility.initialZ 0m
param *.host[*].mobility.typename "\"StationaryMobility\""
param *.host[*].mobility.initFromDisplayString false
param *.host[*].mobility.initialZ 0m
param *.sink[0].mobility.initialX 220m
param *.sink[0].mobility.initialY 180m
param *.host[0].mobility.initialX 40m
param *.host[0].mobility.initialY 0m
param *.host[1].mobility.initialX 80m
param *.host[1].mobility.initialY 0m
param *.host[2].mobility.initialX 120m
param *.host[2].mobility.initialY 0m
param *.host[3].mobility.initialX 160m
param *.host[3].mobility.initialY 0m
param *.host[4].mobility.initialX 200m
param *.host[4].mobility.initialY 0m
param *.host[5].mobility.initialX 240m
param *.host[5].mobility.initialY 0m
param *.host[6].mobility.initialX 280m
param *.host[6].mobility.initialY 0m
param *.host[7].mobility.initialX 320m
param *.host[7].mobility.initialY 0m
param *.host[8].mobility.initialX 360m
param *.host[8].mobility.initialY 0m
param *.host[9].mobility.initialX 400m
param *.host[9].mobility.initialY 0m
param *.host[10].mobility.initialX 40m
param *.host[10].mobility.initialY 40m
param *.host[11].mobility.initialX 80m
param *.host[11].mobility.initialY 40m
param *.host[12].mobility.initialX 120m
param *.host[12].mobility.initialY 40m
param *.host[13].mobility.initialX 160m
param *.host[13].mobility.initialY 40m
param *.host[14].mobility.initialX 200m
param *.host[14].mobility.initialY 40m
param *.host[15].mobility.initialX 240m
param *.host[15].mobility.initialY 40m
param *.host[16].mobility.initialX 280m
param *.host[16].mobility.initialY 40m
param *.host[17].mobility.initialX 320m
param *.host[17].mobility.initialY 40m
param *.host[18].mobility.initialX 360m
param *.host[18].mobility.initialY 40m
param *.host[19].mobility.initialX 400m
param *.host[19].mobility.initialY 40m
param *.host[20].mobility.initialX 40m
param *.host[20].mobility.initialY 80m
param *.host[21].mobility.initialX 80m
param *.host[21].mobility.initialY 80m
param *.host[22].mobility.initialX 120m
param *.host[22].mobility.initialY 80m
param *.host[23].mobility.initialX 160m
param *.host[23].mobility.initialY 80m
param *.host[24].mobility.initialX 200m
param *.host[24].mobility.initialY 80m
param *.host[25].mobility.initialX 240m
param *.host[25].mobility.initialY 80m
param *.host[26].mobility.initialX 280m
param *.host[26].mobility.initialY 80m
param *.host[27].mobility.initialX 320m
param *.host[27].mobility.initialY 80m
param *.host[28].mobility.initialX 360m
param *.host[28].mobility.initialY 80m
param *.host[29].mobility.initialX 400m
param *.host[29].mobility.initialY 80m
param *.host[30].mobility.initialX 40m
param *.host[30].mobility.initialY 120m
param *.host[31].mobility.initialX 80m
param *.host[31].mobility.initialY 120m
param *.host[32].mobility.initialX 120m
param *.host[32].mobility.initialY 120m
param *.host[33].mobility.initialX 160m
param *.host[33].mobility.initialY 120m
param *.host[34].mobility.initialX 200m
param *.host[34].mobility.initialY 120m
param *.host[35].mobility.initialX 240m
param *.host[35].mobility.initialY 120m
param *.host[36].mobility.initialX 280m
param *.host[36].mobility.initialY 120m
param *.host[37].mobility.initialX 320m
param *.host[37].mobility.initialY 120m
param *.host[38].mobility.initialX 360m
param *.host[38].mobility.initialY 120m
param *.host[39].mobility.initialX 400m
param *.host[39].mobility.initialY 120m
param *.host[40].mobility.initialX 40m
param *.host[40].mobility.initialY 160m
param *.host[41].mobility.initialX 80m
param *.host[41].mobility.initialY 160m
param *.host[42].mobility.initialX 120m
param *.host[42].mobility.initialY 160m
param *.host[43].mobility.initialX 160m
param *.host[43].mobility.initialY 160m
param *.host[44].mobility.initialX 200m
param *.host[44].mobility.initialY 160m
param *.host[45].mobility.initialX 240m
param *.host[45].mobility.initialY 160m
param *.host[46].mobility.initialX 280m
param *.host[46].mobility.initialY 160m
param *.host[47].mobility.initialX 320m
param *.host[47].mobility.initialY 160m
param *.host[48].mobility.initialX 360m
param *.host[48].mobility.initialY 160m
param *.host[49].mobility.initialX 400m
param *.host[49].mobility.initialY 160m
param *.host[50].mobility.initialX 40m
param *.host[50].mobility.initialY 200m
param *.host[51].mobility.initialX 80m
param *.host[51].mobility.initialY 200m
param *.host[52].mobility.initialX 120m
param *.host[52].mobility.initialY 200m
param *.host[53].mobility.initialX 160m
param *.host[53].mobility.initialY 200m
param *.host[55].mobility.initialX 240m
param *.host[55].mobility.initialY 200m
param *.host[56].mobility.initialX 280m
param *.host[56].mobility.initialY 200m
param *.host[57].mobility.initialX 320m
param *.host[57].mobility.initialY 200m
param *.host[58].mobility.initialX 360m
param *.host[58].mobility.initialY 200m
param *.host[59].mobility.initialX 400m
param *.host[59].mobility.initialY 200m
param *.host[60].mobility.initialX 40m
param *.host[60].mobility.initialY 240m
param *.host[61].mobility.initialX 80m
param *.host[61].mobility.initialY 240m
param *.host[62].mobility.initialX 120m
param *.host[62].mobility.initialY 240m
param *.host[63].mobility.initialX 160m
param *.host[63].mobility.initialY 240m
param *.host[64].mobility.initialX 200m
param *.host[64].mobility.initialY 240m
param *.host[65].mobility.initialX 240m
param *.host[65].mobility.initialY 240m
param *.host[66].mobility.initialX 280m
param *.host[66].mobility.initialY 240m
param *.host[67].mobility.initialX 320m
param *.host[67].mobility.initialY 240m
param *.host[68].mobility.initialX 360m
param *.host[68].mobility.initialY 240m
param *.host[69].mobility.initialX 400m
param *.host[69].mobility.initialY 240m
param *.host[70].mobility.initialX 40m
param *.host[70].mobility.initialY 280m
param *.host[71].mobility.initialX 80m
param *.host[71].mobility.initialY 280m
param *.host[72].mobility.initialX 120m
param *.host[72].mobility.initialY 280m
param *.host[73].mobility.initialX 160m
param *.host[73].mobility.initialY 280m
param *.host[74].mobility.initialX 200m
param *.host[74].mobility.initialY 280m
param *.host[75].mobility.initialX 240m
param *.host[75].mobility.initialY 280m
param *.host[76].mobility.initialX 280m
param *.host[76].mobility.initialY 280m
param *.host[77].mobility.initialX 320m
param *.host[77].mobility.initialY 280m
param *.host[78].mobility.initialX 360m
param *.host[78].mobility.initialY 280m
param *.host[79].mobility.initialX 400m
param *.host[79].mobility.initialY 280m
param *.host[80].mobility.initialX 40m
param *.host[80].mobility.initialY 320m
param *.host[81].mobility.initialX 80m
param *.host[81].mobility.initialY 320m
param *.host[82].mobility.initialX 120m
param *.host[82].mobility.initialY 320m
param *.host[83].mobility.initialX 160m
param *.host[83].mobility.initialY 320m
param *.host[84].mobility.initialX 200m
param *.host[84].mobility.initialY 320m
param *.host[85].mobility.initialX 240m
param *.host[85].mobility.initialY 320m
param *.host[86].mobility.initialX 280m
param *.host[86].mobility.initialY 320m
param *.host[87].mobility.initialX 320m
param *.host[87].mobility.initialY 320m
param *.host[88].mobility.initialX 360m
param *.host[88].mobility.initialY 320m
param *.host[89].mobility.initialX 400m
param *.host[89].mobility.initialY 320m
param *.host[90].mobility.initialX 40m
param *.host[90].mobility.initialY 360m
param *.host[91].mobility.initialX 80m
param *.host[91].mobility.initialY 360m
param *.host[92].mobility.initialX 120m
param *.host[92].mobility.initialY 360m
param *.host[93].mobility.initialX 160m
param *.host[93].mobility.initialY 360m
param *.host[94].mobility.initialX 200m
param *.host[94].mobility.initialY 360m
param *.host[95].mobility.initialX 240m
param *.host[95].mobility.initialY 360m
param *.host[96].mobility.initialX 280m
param *.host[96].mobility.initialY 360m
param *.host[97].mobility.initialX 320m
param *.host[97].mobility.initialY 360m
param *.host[98].mobility.initialX 360m
param *.host[98].mobility.initialY 360m
param *.host[99].mobility.initialX 400m
param *.host[99].mobility.initialY 360m
param **.host[*].numApps 1
param **.host[*].app[0].typename "\"UdpBasicApp\""
param **.host[*].app[0].destAddresses "\"sink[0]\""
param **.host[*].app[0].destPort 1000
param **.host[*].app[0].messageLength 56B
param **.host[*].app[0].sendInterval 55s
param **.host[*].app[0].startTime uniform(0s,90s)
param **.host[*].app[0].stopTime 3550s
param **.sink[*].numApps 1
param **.sink[*].app[0].typename "\"UdpSink\""
param **.sink[*].app[0].localPort 1000
param **.host[*].energyStorage.typename "\"IdealEpEnergyStorage\""
param **.host[*].energyStorage.nominalCapacity 1000J
param **.host[*].energyStorage.initialCapacity 1000J
param **.host[*].wlan[*].radio.energyConsumer.typename "\"StateBasedEpEnergyConsumer\""
param **.Attack[*].energyStorage.typename "\"IdealEpEnergyStorage\""
param **.Attack[*].energyStorage.nominalCapacity 1000J
param **.Attack[*].energyStorage.initialCapacity 1000J
param **.Attack[*].wlan[*].radio.energyConsumer.typename "\"StateBasedEpEnergyConsumer\""
param *.visualizer.dataLinkVisualizer[*].displayLinks true
param *.visualizer.physicalLinkVisualizer[*].displayLinks true
param *.visualizer.mediumVisualizer.displayCommunicationRanges true
param *.visualizer.networkRouteVisualizer.displayRoutes true
param *.visualizer.*.numDataLinkVisualizers 4
param *.visualizer.*.dataLinkVisualizer[*].displayLinks true
param *.visualizer.*.dataLinkVisualizer[*].activityLevel "\"peer\""
param *.visualizer.*.dataLinkVisualizer[0].packetFilter "\"UDP*\""
param *.visualizer.*.dataLinkVisualizer[0].*Color "\"blue\""
param *.visualizer.*.dataLinkVisualizer[1].packetFilter "\"DIO* or DIS* or DAO*\""
param *.visualizer.*.dataLinkVisualizer[1].*Color "\"green\""
param *.visualizer.*.dataLinkVisualizer[2].packetFilter "\"RERR* or ICMP*\""
param *.visualizer.*.dataLinkVisualizer[2].*Color "\"red\""
param *.visualizer.*.dataLinkVisualizer[3].packetFilter "\"UDP*\""
param *.visualizer.*.dataLinkVisualizer[3].*Color "\"orange\""
param **.app[*].packetSent:count.record true
param **.app[*].packetReceived:count.record true
param **.host[*].app[0].recordStats true
param **.sink[*].app[0].recordStats true
param **.endToEndDelay:vector.record true
param **.endToEndDelay:stats.record true
param **.throughput:vector.record true
param **.throughput:stats.record true

scalar RplNetwork100.radioMedium.propagation "Arrival computation count" 1628600
scalar RplNetwork100.radioMedium "transmission count" 16286
scalar RplNetwork100.radioMedium "signal send count" 1628600
scalar RplNetwork100.radioMedium "reception computation count" 1628600
scalar RplNetwork100.radioMedium "interference computation count" 4899186
scalar RplNetwork100.radioMedium "reception decision computation count" 59929
scalar RplNetwork100.radioMedium "listening decision computation count" 3210982
scalar RplNetwork100.radioMedium "reception cache hit" 75.892118191089
attr unit %
scalar RplNetwork100.radioMedium "interference cache hit" 66.666666666667
attr unit %
scalar RplNetwork100.radioMedium "noise cache hit" 0
attr unit %
scalar RplNetwork100.radioMedium "snir cache hit" 50
attr unit %
scalar RplNetwork100.radioMedium "reception decision cache hit" 50
attr unit %
scalar RplNetwork100.radioMedium "reception result cache hit" 0
attr unit %
scalar RplNetwork100.sink[0].lo[0].lo rcvdPkFromHl:count 0
attr interpolationmode none
attr source packetReceivedFromUpper
attr title "packets received from higher layer, count"
scalar RplNetwork100.sink[0].lo[0].lo rcvdPkFromHl:sum(packetBytes) 0
attr interpolationmode none
attr source packetReceivedFromUpper
attr title "packets received from higher layer, sum(packetBytes)"
scalar RplNetwork100.sink[0].lo[0].lo passedUpPk:count 0
attr interpolationmode none
attr source packetSentToUpper
attr title "packets passed to higher layer, count"
scalar RplNetwork100.sink[0].lo[0].lo passedUpPk:sum(packetBytes) 0
attr interpolationmode none
attr source packetSentToUpper
attr title "packets passed to higher layer, sum(packetBytes)"
scalar RplNetwork100.sink[0].wlan[0].mac.queue packetPopped:count 16
attr interpolationmode none
attr title "packet popped, count"
scalar RplNetwork100.sink[0].wlan[0].mac.queue packetPopped:sum(packetBytes) 1608
attr interpolationmode none
attr title "packet popped, sum(packetBytes)"
statistic RplNetwork100.sink[0].wlan[0].mac.queue queueingTime:histogram
field count 16
field mean 0.001208
field stddev 0.00072854192283858
field min 0.000128
field max 0.002368
field sum 0.019328
field sqrsum 3.1309824e-05
attr interpolationmode none
attr source queueingTime(packetPopped)
attr title "queueing times, histogram"
attr unit s
bin	-inf	0
bin	0	0
bin	5e-05	0
bin	0.0001	1
bin	0.00015	0
bin	0.0002	0
bin	0.00025	0
bin	0.0003	0
bin	0.00035	0
bin	0.0004	4
bin	0.00045	0
bin	0.0005	0
bin	0.00055	0
bin	0.0006	0
bin	0.00065	0
bin	0.0007	0
bin	0.00075	0
bin	0.0008	0
bin	0.00085	0
bin	0.0009	0
bin	0.00095	0
bin	0.001	0
bin	0.00105	5
bin	0.0011	0
bin	0.00115	0
bin	0.0012	0
bin	0.00125	0
bin	0.0013	0
bin	0.00135	0
bin	0.0014	1
bin	0.00145	0
bin	0.0015	0
bin	0.00155	0
bin	0.0016	0
bin	0.00165	0
bin	0.0017	1
bin	0.00175	0
bin	0.0018	0
bin	0.00185	0
bin	0.0019	0
bin	0.00195	0
bin	0.002	2
bin	0.00205	0
bin	0.0021	0
bin	0.00215	0
bin	0.0022	0
bin	0.00225	0
bin	0.0023	0
bin	0.00235	2
bin	0.0024	0
bin	0.00245	0
bin	0.0025	0
bin	0.00255	0
bin	0.0026	0
bin	0.00265	0
bin	0.0027	0
bin	0.00275	0
bin	0.0028	0
bin	0.00285	0
bin	0.0029	0
bin	0.00295	0
scalar RplNetwork100.sink[0].wlan[0].mac.queue queueLength:max 1
attr interpolationmode sample-hold
attr source "count(packetPushed) - count(packetPopped) - count(packetRemoved) - count(packetDropped)"
attr title "queue length, max"
scalar RplNetwork100.sink[0].wlan[0].mac.queue queueLength:timeavg 5.6367597469549e-06
attr interpolationmode sample-hold
attr source "count(packetPushed) - count(packetPopped) - count(packetRemoved) - count(packetDropped)"
attr title "queue length, timeavg"
scalar RplNetwork100.sink[0].wlan[0].mac.queue packetPushed:count 16
attr interpolationmode none
attr title "packet pushed, count"
scalar RplNetwork100.sink[0].wlan[0].mac.queue packetPushed:sum(packetBytes) 1608
attr interpolationmode none
attr title "packet pushed, sum(packetBytes)"
scalar RplNetwork100.sink[0].wlan[0].mac.queue packetDropQueueOverflow:count 0
attr interpolationmode none
attr source packetDropReasonIsQueueOverflow(packetDropped)
attr title "packet drops: queue overflow, count"
scalar RplNetwork100.sink[0].wlan[0].mac.queue packetDropQueueOverflow:sum(packetBytes) 0
attr interpolationmode none
attr source packetDropReasonIsQueueOverflow(packetDropped)
attr title "packet drops: queue overflow, sum(packetBytes)"
scalar RplNetwork100.sink[0].wlan[0].mac.queue packetRemoved:count 0
attr interpolationmode none
attr title "packets removed, count"
scalar RplNetwork100.sink[0].wlan[0].mac.queue packetRemoved:sum(packetBytes) 0
attr interpolationmode none
attr title "packets removed, sum(packetBytes)"
scalar RplNetwork100.sink[0].wlan[0].mac nbTxFrames 120
scalar RplNetwork100.sink[0].wlan[0].mac nbRxFrames 344
scalar RplNetwork100.sink[0].wlan[0].mac nbDroppedFrames 0
scalar RplNetwork100.sink[0].wlan[0].mac nbMissedAcks 0
scalar RplNetwork100.sink[0].wlan[0].mac nbRecvdAcks 99
scalar RplNetwork100.sink[0].wlan[0].mac nbTxAcks 274
scalar RplNetwork100.sink[0].wlan[0].mac nbDuplicates 0
scalar RplNetwork100.sink[0].wlan[0].mac meanBackoff 0.0011716129032258
scalar RplNetwork100.sink[0].wlan[0].mac nbBackoffs 124
scalar RplNetwork100.sink[0].wlan[0].mac backoffDurations 0.14528
scalar RplNetwork100.sink[0].wlan[0].mac packetDropNotAddressToUs:count 470
attr interpolationmode none
attr source packetDropReasonIsNotAddressedToUs(packetDropped)
attr title "packet drop: not addressed to us, count"
scalar RplNetwork100.sink[0].wlan[0].mac packetDropNotAddressToUs:sum(packetBytes) 8722
attr interpolationmode none
attr source packetDropReasonIsNotAddressedToUs(packetDropped)
attr title "packet drop: not addressed to us, sum(packetBytes)"
scalar RplNetwork100.sink[0].wlan[0].mac packetDropIncorrectlyReceived:count 0
attr interpolationmode none
attr source packetDropReasonIsIncorrectlyReceived(packetDropped)
attr title "packet drop: incorrectly received, count"
scalar RplNetwork100.sink[0].wlan[0].mac packetDropIncorrectlyReceived:sum(packetBytes) 0
attr interpolationmode none
attr source packetDropReasonIsIncorrectlyReceived(packetDropped)
attr title "packet drop: incorrectly received, sum(packetBytes)"
scalar RplNetwork100.sink[0].wlan[0].mac packetDropQueueOverflow:count 0
attr interpolationmode none
attr source packetDropReasonIsQueueOverflow(packetDropped)
attr title "packet drop: queue overflow, count"
scalar RplNetwork100.sink[0].wlan[0].mac packetDropQueueOverflow:sum(packetBytes) 0
attr interpolationmode none
attr source packetDropReasonIsQueueOverflow(packetDropped)
attr title "packet drop: queue overflow, sum(packetBytes)"
scalar RplNetwork100.sink[0].wlan[0].mac packetDropRetryLimitReached:count 0
attr interpolationmode none
attr source packetDropReasonIsRetryLimitReached(packetDropped)
attr title "packet drop: retry limit reached, count"
scalar RplNetwork100.sink[0].wlan[0].mac packetDropRetryLimitReached:sum(packetBytes) 0
attr interpolationmode none
attr source packetDropReasonIsRetryLimitReached(packetDropped)
attr title "packet drop: retry limit reached, sum(packetBytes)"
scalar RplNetwork100.sink[0].wlan[0].mac packetDropBackoffLimitReached:count 0
attr interpolationmode none
attr source packetDropReasonIsCongestion(packetDropped)
attr title "packet drop: backoff limit reached, count"
scalar RplNetwork100.sink[0].wlan[0].mac packetDropBackoffLimitReached:sum(packetBytes) 0
attr interpolationmode none
attr source packetDropReasonIsCongestion(packetDropped)
attr title "packet drop: backoff limit reached, sum(packetBytes)"
scalar RplNetwork100.sink[0].wlan[0].mac linkBroken:count 0
attr interpolationmode none
attr source linkBroken
attr title "link break, count"
scalar RplNetwork100.sink[0].wlan[0].radio radioMode:count 382
attr interpolationmode sample-hold
attr source radioModeChanged
attr title "Radio mode, count"
scalar RplNetwork100.sink[0].wlan[0].radio receptionState:count 2862
attr interpolationmode sample-hold
attr source receptionStateChanged
attr title "Radio reception state, count"
scalar RplNetwork100.sink[0].wlan[0].radio transmissionState:count 764
attr interpolationmode sample-hold
attr source transmissionStateChanged
attr title "Radio transmission state, count"
statistic RplNetwork100.sink[0].wlan[0].radio minSnir:histogram
field count 708
field mean 696.4132056578
field stddev 22.712612769322
field min 92.923478762343
field max 697.26679791649
field sum 493060.54960573
field sqrsum 343738592.91894
attr source minimumSnir(packetSentToUpper)
attr title "Min SNIR, histogram"
bin	-inf	0
bin	90	1
bin	100	0
bin	110	0
bin	120	0
bin	130	0
bin	140	0
bin	150	0
bin	160	0
bin	170	0
bin	180	0
bin	190	0
bin	200	0
bin	210	0
bin	220	0
bin	230	0
bin	240	0
bin	250	0
bin	260	0
bin	270	0
bin	280	0
bin	290	0
bin	300	0
bin	310	0
bin	320	0
bin	330	0
bin	340	0
bin	350	0
bin	360	0
bin	370	0
bin	380	0
bin	390	0
bin	400	0
bin	410	0
bin	420	0
bin	430	0
bin	440	0
bin	450	0
bin	460	0
bin	470	0
bin	480	0
bin	490	0
bin	500	0
bin	510	0
bin	520	0
bin	530	0
bin	540	0
bin	550	0
bin	560	0
bin	570	0
bin	580	0
bin	590	0
bin	600	0
bin	610	0
bin	620	0
bin	630	0
bin	640	0
bin	650	0
bin	660	0
bin	670	0
bin	680	0
bin	690	707
bin	700	0
statistic RplNetwork100.sink[0].wlan[0].radio packetErrorRate:histogram
field count 708
field mean 0
field stddev 0
field min 0
field max 0
field sum 0
field sqrsum 0
attr source packetErrorRate(packetSentToUpper)
attr title "Packet error rate, histogram"
bin	-inf	0
bin	-0.5	0
bin	-0.48	0
bin	-0.46	0
bin	-0.44	0
bin	-0.42	0
bin	-0.4	0
bin	-0.38	0
bin	-0.36	0
bin	-0.34	0
bin	-0.32	0
bin	-0.3	0
bin	-0.28	0
bin	-0.26	0
bin	-0.24	0
bin	-0.22	0
bin	-0.2	0
bin	-0.18	0
bin	-0.16	0
bin	-0.14	0
bin	-0.12	0
bin	-0.1	0
bin	-0.08	0
bin	-0.06	0
bin	-0.04	0
bin	-0.02	0
bin	0	708
bin	0.02	0
bin	0.04	0
bin	0.06	0
bin	0.08	0
bin	0.1	0
bin	0.12	0
bin	0.14	0
bin	0.16	0
bin	0.18	0
bin	0.2	0
bin	0.22	0
bin	0.24	0
bin	0.26	0
bin	0.28	0
bin	0.3	0
bin	0.32	0
bin	0.34	0
bin	0.36	0
bin	0.38	0
bin	0.4	0
bin	0.42	0
bin	0.44	0
bin	0.46	0
bin	0.48	0
bin	0.5	0
statistic RplNetwork100.sink[0].wlan[0].radio bitErrorRate:histogram
field count 708
field mean 0
field stddev 0
field min 0
field max 0
field sum 0
field sqrsum 0
attr source bitErrorRate(packetSentToUpper)
attr title "Bit error rate, histogram"
bin	-inf	0
bin	-0.5	0
bin	-0.48	0
bin	-0.46	0
bin	-0.44	0
bin	-0.42	0
bin	-0.4	0
bin	-0.38	0
bin	-0.36	0
bin	-0.34	0
bin	-0.32	0
bin	-0.3	0
bin	-0.28	0
bin	-0.26	0
bin	-0.24	0
bin	-0.22	0
bin	-0.2	0
bin	-0.18	0
bin	-0.16	0
bin	-0.14	0
bin	-0.12	0
bin	-0.1	0
bin	-0.08	0
bin	-0.06	0
bin	-0.04	0
bin	-0.02	0
bin	0	708
bin	0.02	0
bin	0.04	0
bin	0.06	0
bin	0.08	0
bin	0.1	0
bin	0.12	0
bin	0.14	0
bin	0.16	0
bin	0.18	0
bin	0.2	0
bin	0.22	0
bin	0.24	0
bin	0.26	0
bin	0.28	0
bin	0.3	0
bin	0.32	0
bin	0.34	0
bin	0.36	0
bin	0.38	0
bin	0.4	0
bin	0.42	0
bin	0.44	0
bin	0.46	0
bin	0.48	0
bin	0.5	0
statistic RplNetwork100.sink[0].wlan[0].radio symbolErrorRate:histogram
field count 0
field mean -nan
field stddev -nan
field min -nan
field max -nan
field sum 0
field sqrsum 0
attr source symbolErrorRate(packetSentToUpper)
attr title "Symbol error rate, histogram"
bin	-inf	0
bin	0	0
bin	1	0
scalar RplNetwork100.sink[0].ipv6.neighbourDiscovery startDad:count 0
attr title "DAD started, count"
scalar RplNetwork100.sink[0].udp packetReceived:count 175
attr interpolationmode none
attr source packetReceived
attr title "packets received, count"
scalar RplNetwork100.sink[0].udp packetReceived:sum(packetBytes) 11200
attr interpolationmode none
attr source packetReceived
attr title "packets received, sum(packetBytes)"
scalar RplNetwork100.sink[0].udp packetSent:count 0
attr interpolationmode none
attr source packetSent
attr title "packets sent, count"
scalar RplNetwork100.sink[0].udp packetSent:sum(packetBytes) 0
attr interpolationmode none
attr source packetSent
attr title "packets sent, sum(packetBytes)"
scalar RplNetwork100.sink[0].udp passedUpPk:count 175
attr interpolationmode none
attr source packetSentToUpper
attr title "packets passed up, count"
scalar RplNetwork100.sink[0].udp droppedPkWrongPort:count 0
attr interpolationmode none
attr source packetDropReasonIsNoPortFound(packetDropped)
attr title "packets dropped (wrong port), count"
scalar RplNetwork100.sink[0].udp droppedPkBadChecksum:count 0
attr interpolationmode none
attr source packetDropReasonIsIncorrectlyReceived(packetDropped)
attr title "packets dropped (checksum error), count"
scalar RplNetwork100.sink[0].app[0] packetReceived:count 175
attr interpolationmode none
attr source packetReceived
attr title "packets received, count"
scalar RplNetwork100.sink[0].app[0] packetReceived:sum(packetBytes) 9800
attr interpolationmode none
attr source packetReceived
attr title "packets received, sum(packetBytes)"
statistic RplNetwork100.sink[0].app[0] endToEndDelay:histogram
field count 175
field mean 0.0052453905688571
field stddev 0.00071707693453999
field min 0.004128133426
field max 0.006368133426
field sum 0.91794334955
field sqrsum 0.0049044420719033
attr interpolationmode none
attr source dataAge(packetReceived)
attr title "end-to-end delay, histogram"
attr unit s
bin	-inf	0
bin	0.00355	0
bin	0.0036	0
bin	0.00365	0
bin	0.0037	0
bin	0.00375	0
bin	0.0038	0
bin	0.00385	0
bin	0.0039	0
bin	0.00395	0
bin	0.004	0
bin	0.00405	0
bin	0.0041	18
bin	0.00415	0
bin	0.0042	0
bin	0.00425	0
bin	0.0043	0
bin	0.00435	0
bin	0.0044	25
bin	0.00445	0
bin	0.0045	0
bin	0.00455	0
bin	0.0046	0
bin	0.00465	0
bin	0.0047	0
bin	0.00475	27
bin	0.0048	0
bin	0.00485	0
bin	0.0049	0
bin	0.00495	0
bin	0.005	0
bin	0.00505	15
bin	0.0051	0
bin	0.00515	0
bin	0.0052	0
bin	0.00525	0
bin	0.0053	0
bin	0.00535	0
bin	0.0054	22
bin	0.00545	0
bin	0.0055	0
bin	0.00555	0
bin	0.0056	0
bin	0.00565	0
bin	0.0057	28
bin	0.00575	0
bin	0.0058	0
bin	0.00585	0
bin	0.0059	0
bin	0.00595	0
bin	0.006	21
bin	0.00605	0
bin	0.0061	0
bin	0.00615	0
bin	0.0062	0
bin	0.00625	0
bin	0.0063	0
bin	0.00635	19
bin	0.0064	0
bin	0.00645	0
bin	0.0065	0
bin	0.00655	0
bin	0.0066	0
bin	0.00665	0
bin	0.0067	0
bin	0.00675	0
bin	0.0068	0
bin	0.00685	0
bin	0.0069	0
bin	0.00695	0
scalar RplNetwork100.sink[0].rpl rank 1
scalar RplNetwork100.sink[0].rpl parentUnreachable:count 0
attr interpolationmode none
attr source parentUnreachable
attr title "Preferred parent unreachability detected, count"
scalar RplNetwork100.sink[0].rpl rankUpdated:count 0
attr interpolationmode none
attr source rankUpdated
attr title "Rank is updated, count"
scalar RplNetwork100.sink[0].rpl parentChanged:count 0
attr interpolationmode none
attr source parentChanged
attr title "Preferred parent has changed, count"
scalar RplNetwork100.sink[0].rpl daoReceived:count 0
attr interpolationmode none
attr source daoReceived
attr title "DAO packets received, count"
scalar RplNetwork100.sink[0].rpl dioReceived:count 0
attr interpolationmode none
attr source dioReceived
attr title "DIO packets received, count"
scalar RplNetwork100.host[0].energyStorage residualEnergyCapacity:last -7.2289696898537
attr interpolationmode linear
attr source residualEnergyCapacityChanged
attr title "Residual energy capacity, last"
scalar RplNetwork100.host[0].lo[0].lo rcvdPkFromHl:count 0
attr interpolationmode none
attr source packetReceivedFromUpper
attr title "packets received from higher layer, count"
scalar RplNetwork100.host[0].lo[0].lo rcvdPkFromHl:sum(packetBytes) 0
attr interpolationmode none
attr source packetReceivedFromUpper
attr title "packets received from higher layer, sum(packetBytes)"
scalar RplNetwork100.host[0].lo[0].lo passedUpPk:count 0
attr interpolationmode none
attr source packetSentToUpper
attr title "packets passed to higher layer, count"
scalar RplNetwork100.host[0].lo[0].lo passedUpPk:sum(packetBytes) 0
attr interpolationmode none
attr source packetSentToUpper
attr title "packets passed to higher layer, sum(packetBytes)"
scalar RplNetwork100.host[0].wlan[0].mac.queue packetPopped:count 76
attr interpolationmode none
attr title "packet popped, count"
scalar RplNetwork100.host[0].wlan[0].mac.queue packetPopped:sum(packetBytes) 8348
attr interpolationmode none
attr title "packet popped, sum(packetBytes)"
statistic RplNetwork100.host[0].wlan[0].mac.queue queueingTime:histogram
field count 76
field mean 0.0011890526315789
field stddev 0.00077014904003034
field min 0.000128
field max 0.002368
field sum 0.090368
field sqrsum 0.000151937024
attr interpolationmode none
attr source queueingTime(packetPopped)
attr title "queueing times, histogram"
attr unit s
bin	-inf	0
bin	0	0
bin	5e-05	0
bin	0.0001	12
bin	0.00015	0
bin	0.0002	0
bin	0.00025	0
bin	0.0003	0
bin	0.00035	0
bin	0.0004	12
bin	0.00045	0
bin	0.0005	0
bin	0.00055	0
bin	0.0006	0
bin	0.00065	0
bin	0.0007	0
bin	0.00075	6
bin	0.0008	0
bin	0.00085	0
bin	0.0009	0
bin	0.00095	0
bin	0.001	0
bin	0.00105	11
bin	0.0011	0
bin	0.00115	0
bin	0.0012	0
bin	0.00125	0
bin	0.0013	0
bin	0.00135	0
bin	0.0014	9
bin	0.00145	0
bin	0.0015	0
bin	0.00155	0
bin	0.0016	0
bin	0.00165	0
bin	0.0017	8
bin	0.00175	0
bin	0.0018	0
bin	0.00185	0
bin	0.0019	0
bin	0.00195	0
bin	0.002	7
bin	0.00205	0
bin	0.0021	0
bin	0.00215	0
bin	0.0022	0
bin	0.00225	0
bin	0.0023	0
bin	0.00235	11
bin	0.0024	0
bin	0.00245	0
bin	0.0025	0
bin	0.00255	0
bin	0.0026	0
bin	0.00265	0
bin	0.0027	0
bin	0.00275	0
bin	0.0028	0
bin	0.00285	0
bin	0.0029	0
bin	0.00295	0
scalar RplNetwork100.host[0].wlan[0].mac.queue queueLength:max 1
attr interpolationmode sample-hold
attr source "count(packetPushed) - count(packetPopped) - count(packetRemoved) - count(packetDropped)"
attr title "queue length, max"
scalar RplNetwork100.host[0].wlan[0].mac.queue queueLength:timeavg 2.582135980664e-05
attr interpolationmode sample-hold
attr source "count(packetPushed) - count(packetPopped) - count(packetRemoved) - count(packetDropped)"
attr title "queue length, timeavg"
scalar RplNetwork100.host[0].wlan[0].mac.queue packetPushed:count 76
attr interpolationmode none
attr title "packet pushed, count"
scalar RplNetwork100.host[0].wlan[0].mac.queue packetPushed:sum(packetBytes) 8348
attr interpolationmode none
attr title "packet pushed, sum(packetBytes)"
scalar RplNetwork100.host[0].wlan[0].mac.queue packetDropQueueOverflow:count 0
attr interpolationmode none
attr source packetDropReasonIsQueueOverflow(packetDropped)
attr title "packet drops: queue overflow, count"
scalar RplNetwork100.host[0].wlan[0].mac.queue packetDropQueueOverflow:sum(packetBytes) 0
attr interpolationmode none
attr source packetDropReasonIsQueueOverflow(packetDropped)
attr title "packet drops: queue overflow, sum(packetBytes)"
scalar RplNetwork100.host[0].wlan[0].mac.queue packetRemoved:count 0
attr interpolationmode none
attr title "packets removed, count"
scalar RplNetwork100.host[0].wlan[0].mac.queue packetRemoved:sum(packetBytes) 0
attr interpolationmode none
attr title "packets removed, sum(packetBytes)"
scalar RplNetwork100.host[0].wlan[0].mac nbTxFrames 82
scalar RplNetwork100.host[0].wlan[0].mac nbRxFrames 45
scalar RplNetwork100.host[0].wlan[0].mac nbDroppedFrames 0
scalar RplNetwork100.host[0].wlan[0].mac nbMissedAcks 0
scalar RplNetwork100.host[0].wlan[0].mac nbRecvdAcks 60
scalar RplNetwork100.host[0].wlan[0].mac nbTxAcks 1
scalar RplNetwork100.host[0].wlan[0].mac nbDuplicates 0
scalar RplNetwork100.host[0].wlan[0].mac meanBackoff 0.0010770731707317
scalar RplNetwork100.host[0].wlan[0].mac nbBackoffs 82
scalar RplNetwork100.host[0].wlan[0].mac backoffDurations 0.08832
scalar RplNetwork100.host[0].wlan[0].mac packetDropNotAddressToUs:count 118
attr interpolationmode none
attr source packetDropReasonIsNotAddressedToUs(packetDropped)
attr title "packet drop: not addressed to us, count"
scalar RplNetwork100.host[0].wlan[0].mac packetDropNotAddressToUs:sum(packetBytes) 13334
attr interpolationmode none
attr source packetDropReasonIsNotAddressedToUs(packetDropped)
attr title "packet drop: not addressed to us, sum(packetBytes)"
scalar RplNetwork100.host[0].wlan[0].mac packetDropIncorrectlyReceived:count 0
attr interpolationmode none
attr source packetDropReasonIsIncorrectlyReceived(packetDropped)
attr title "packet drop: incorrectly received, count"
scalar RplNetwork100.host[0].wlan[0].mac packetDropIncorrectlyReceived:sum(packetBytes) 0
attr interpolationmode none
attr source packetDropReasonIsIncorrectlyReceived(packetDropped)
attr title "packet drop: incorrectly received, sum(packetBytes)"
scalar RplNetwork100.host[0].wlan[0].mac packetDropQueueOverflow:count 0
attr interpolationmode none
attr source packetDropReasonIsQueueOverflow(packetDropped)
attr title "packet drop: queue overflow, count"
scalar RplNetwork100.host[0].wlan[0].mac packetDropQueueOverflow:sum(packetBytes) 0
attr interpolationmode none
attr source packetDropReasonIsQueueOverflow(packetDropped)
attr title "packet drop: queue overflow, sum(packetBytes)"
scalar RplNetwork100.host[0].wlan[0].mac packetDropRetryLimitReached:count 0
attr interpolationmode none
attr source packetDropReasonIsRetryLimitReached(packetDropped)
attr title "packet drop: retry limit reached, count"
scalar RplNetwork100.host[0].wlan[0].mac packetDropRetryLimitReached:sum(packetBytes) 0
attr interpolationmode none
attr source packetDropReasonIsRetryLimitReached(packetDropped)
attr title "packet drop: retry limit reached, sum(packetBytes)"
scalar RplNetwork100.host[0].wlan[0].mac packetDropBackoffLimitReached:count 0
attr interpolationmode none
attr source packetDropReasonIsCongestion(packetDropped)
attr title "packet drop: backoff limit reached, count"
scalar RplNetwork100.host[0].wlan[0].mac packetDropBackoffLimitReached:sum(packetBytes) 0
attr interpolationmode none
attr source packetDropReasonIsCongestion(packetDropped)
attr title "packet drop: backoff limit reached, sum(packetBytes)"
scalar RplNetwork100.host[0].wlan[0].mac linkBroken:count 0
attr interpolationmode none
attr source linkBroken
attr title "link break, count"
scalar RplNetwork100.host[0].wlan[0].radio radioMode:count 152
attr interpolationmode sample-hold
attr source radioModeChanged
attr title "Radio mode, count"
scalar RplNetwork100.host[0].wlan[0].radio receptionState:count 716
attr interpolationmode sample-hold
attr source receptionStateChanged
attr title "Radio reception state, count"
scalar RplNetwork100.host[0].wlan[0].radio transmissionState:count 304
attr interpolationmode sample-hold
attr source transmissionStateChanged
attr title "Radio transmission state, count"
statistic RplNetwork100.host[0].wlan[0].radio minSnir:histogram
field count 211
field mean 697.2667979165
field stddev 0
field min 697.26679791649
field max 697.26679791649
field sum 147123.29436038
field sqrsum 102584188.35759
attr source minimumSnir(packetSentToUpper)
attr title "Min SNIR, histogram"
bin	-inf	0
bin	696.76	0
bin	696.78	0
bin	696.8	0
bin	696.82	0
bin	696.84	0
bin	696.86	0
bin	696.88	0
bin	696.9	0
bin	696.92	0
bin	696.94	0
bin	696.96	0
bin	696.98	0
bin	697	0
bin	697.02	0
bin	697.04	0
bin	697.06	0
bin	697.08	0
bin	697.1	0
bin	697.12	0
bin	697.14	0
bin	697.16	0
bin	697.18	0
bin	697.2	0
bin	697.22	0
bin	697.24	0
bin	697.26	211
bin	697.28	0
bin	697.3	0
bin	697.32	0
bin	697.34	0
bin	697.36	0
bin	697.38	0
bin	697.4	0
bin	697.42	0
bin	697.44	0
bin	697.46	0
bin	697.48	0
bin	697.5	0
bin	697.52	0
bin	697.54	0
bin	697.56	0
bin	697.58	0
bin	697.6	0
bin	697.62	0
bin	697.64	0
bin	697.66	0
bin	697.68	0
bin	697.7	0
bin	697.72	0
bin	697.74	0
bin	697.76	0
bin	697.78	0
statistic RplNetwork100.host[0].wlan[0].radio packetErrorRate:histogram
field count 211
field mean 0
field stddev 0
field min 0
field max 0
field sum 0
field sqrsum 0
attr source packetErrorRate(packetSentToUpper)
attr title "Packet error rate, histogram"
bin	-inf	0
bin	-0.5	0
bin	-0.48	0
bin	-0.46	0
bin	-0.44	0
bin	-0.42	0
bin	-0.4	0
bin	-0.38	0
bin	-0.36	0
bin	-0.34	0
bin	-0.32	0
bin	-0.3	0
bin	-0.28	0
bin	-0.26	0
bin	-0.24	0
bin	-0.22	0
bin	-0.2	0
bin	-0.18	0
bin	-0.16	0
bin	-0.14	0
bin	-0.12	0
bin	-0.1	0
bin	-0.08	0
bin	-0.06	0
bin	-0.04	0
bin	-0.02	0
bin	0	211
bin	0.02	0
bin	0.04	0
bin	0.06	0
bin	0.08	0
bin	0.1	0
bin	0.12	0
bin	0.14	0
bin	0.16	0
bin	0.18	0
bin	0.2	0
bin	0.22	0
bin	0.24	0
bin	0.26	0
bin	0.28	0
bin	0.3	0
bin	0.32	0
bin	0.34	0
bin	0.36	0
bin	0.38	0
bin	0.4	0
bin	0.42	0
bin	0.44	0
bin	0.46	0
bin	0.48	0
bin	0.5	0
statistic RplNetwork100.host[0].wlan[0].radio bitErrorRate:histogram
field count 211
field mean 0
field stddev 0
field min 0
field max 0
field sum 0
field sqrsum 0
attr source bitErrorRate(packetSentToUpper)
attr title "Bit error rate, histogram"
bin	-inf	0
bin	-0.5	0
bin	-0.48	0
bin	-0.46	0
bin	-0.44	0
bin	-0.42	0
bin	-0.4	0
bin	-0.38	0
bin	-0.36	0
bin	-0.34	0
bin	-0.32	0
bin	-0.3	0
bin	-0.28	0
bin	-0.26	0
bin	-0.24	0
bin	-0.22	0
bin	-0.2	0
bin	-0.18	0
bin	-0.16	0
bin	-0.14	0
bin	-0.12	0
bin	-0.1	0
bin	-0.08	0
bin	-0.06	0
bin	-0.04	0
bin	-0.02	0
bin	0	211
bin	0.02	0
bin	0.04	0
bin	0.06	0
bin	0.08	0
bin	0.1	0
bin	0.12	0
bin	0.14	0
bin	0.16	0
bin	0.18	0
bin	0.2	0
bin	0.22	0
bin	0.24	0
bin	0.26	0
bin	0.28	0
bin	0.3	0
bin	0.32	0
bin	0.34	0
bin	0.36	0
bin	0.38	0
bin	0.4	0
bin	0.42	0
bin	0.44	0
bin	0.46	0
bin	0.48	0
bin	0.5	0
statistic RplNetwork100.host[0].wlan[0].radio symbolErrorRate:histogram
field count 0
field mean -nan
field stddev -nan
field min -nan
field max -nan
field sum 0
field sqrsum 0
attr source symbolErrorRate(packetSentToUpper)
attr title "Symbol error rate, histogram"
bin	-inf	0
bin	0	0
bin	1	0
scalar RplNetwork100.host[0].ipv6.neighbourDiscovery startDad:count 0
attr title "DAD started, count"
scalar RplNetwork100.host[0].udp packetReceived:count 0
attr interpolationmode none
attr source packetReceived
attr title "packets received, count"
scalar RplNetwork100.host[0].udp packetReceived:sum(packetBytes) 0
attr interpolationmode none
attr source packetReceived
attr title "packets received, sum(packetBytes)"
scalar RplNetwork100.host[0].udp packetSent:count 59
attr interpolationmode none
attr source packetSent
attr title "packets sent, count"
scalar RplNetwork100.host[0].udp packetSent:sum(packetBytes) 3776
attr interpolationmode none
attr source packetSent
attr title "packets sent, sum(packetBytes)"
scalar RplNetwork100.host[0].udp passedUpPk:count 0
attr interpolationmode none
attr source packetSentToUpper
attr title "packets passed up, count"
scalar RplNetwork100.host[0].udp droppedPkWrongPort:count 0
attr interpolationmode none
attr source packetDropReasonIsNoPortFound(packetDropped)
attr title "packets dropped (wrong port), count"
scalar RplNetwork100.host[0].udp droppedPkBadChecksum:count 0
attr interpolationmode none
attr source packetDropReasonIsIncorrectlyReceived(packetDropped)
attr title "packets dropped (checksum error), count"
scalar RplNetwork100.host[0].app[0] "packets sent" 59
scalar RplNetwork100.host[0].app[0] "packets received" 0
scalar RplNetwork100.host[0].app[0] packetReceived:count 0
attr interpolationmode none
attr source packetReceived
attr title "packets received, count"
scalar RplNetwork100.host[0].app[0] packetReceived:sum(packetBytes) 0
attr interpolationmode none
attr source packetReceived
attr title "packets received, sum(packetBytes)"
statistic RplNetwork100.host[0].app[0] rcvdPkLifetime:stats
field count 0
field mean -nan
field stddev -nan
field min -nan
field max -nan
field sum 0
field sqrsum 0
attr interpolationmode none
attr source dataAge(packetReceived)
attr title "received packet lifetime, stats"
attr unit s
scalar RplNetwork100.host[0].app[0] packetSent:count 59
attr interpolationmode none
attr source packetSent
attr title "packets sent, count"
scalar RplNetwork100.host[0].app[0] packetSent:sum(packetBytes) 3304
attr interpolationmode none
attr source packetSent
attr title "packets sent, sum(packetBytes)"
scalar RplNetwork100.host[0].rpl rank 10
scalar RplNetwork100.host[0].rpl parentId 1
scalar RplNetwork100.host[0].rpl parentUnreachable:count 0
attr interpolationmode none
attr source parentUnreachable
attr title "Preferred parent unreachability detected, count"
scalar RplNetwork100.host[0].rpl rankUpdated:count 0
attr interpolationmode none
attr source rankUpdated
attr title "Rank is updated, count"
scalar RplNetwork100.host[0].rpl parentChanged:count 0
attr interpolationmode none
attr source parentChanged
attr title "Preferred parent has changed, count"
scalar RplNetwork100.host[0].rpl daoReceived:count 0
attr interpolationmode none
attr source daoReceived
attr title "DAO packets received, count"
scalar RplNetwork100.host[0].rpl dioReceived:count 9
attr interpolationmode none
attr source dioReceived
attr title "DIO packets received, count"
scalar RplNetwork100.host[1].energyStorage residualEnergyCapacity:last -7.2224491143034
attr interpolationmode linear
attr source residualEnergyCapacityChanged
attr title "Residual energy capacity, last"
scalar RplNetwork100.host[1].lo[0].lo rcvdPkFromHl:count 0
attr interpolationmode none
attr source packetReceivedFromUpper
attr title "packets received from higher layer, count"
scalar RplNetwork100.host[1].lo[0].lo rcvdPkFromHl:sum(packetBytes) 0
attr interpolationmode none
attr source packetReceivedFromUpper
attr title "packets received from higher layer, sum(packetBytes)"
scalar RplNetwork100.host[1].lo[0].lo passedUpPk:count 0
attr interpolationmode none
attr source packetSentToUpper
attr title "packets passed to higher layer, count"
scalar RplNetwork100.host[1].lo[0].lo passedUpPk:sum(packetBytes) 0
attr interpolationmode none
attr source packetSentToUpper
attr title "packets passed to higher layer, sum(packetBytes)"
scalar RplNetwork100.host[1].wlan[0].mac.queue packetPopped:count 76
attr interpolationmode none
attr title "packet popped, count"
scalar RplNetwork100.host[1].wlan[0].mac.queue packetPopped:sum(packetBytes) 8428
attr interpolationmode none
attr title "packet popped, sum(packetBytes)"
statistic RplNetwork100.host[1].wlan[0].mac.queue queueingTime:histogram
field count 76
field mean 0.0011132631578947
field stddev 0.00073113878971407
field min 0.000128
field max 0.002368
field sum 0.084608
field sqrsum 0.000134283264
attr interpolationmode none
attr source queueingTime(packetPopped)
attr title "queueing times, histogram"
attr unit s
bin	-inf	0
bin	0	0
bin	5e-05	0
bin	0.0001	12
bin	0.00015	0
bin	0.0002	0
bin	0.00025	0
bin	0.0003	0
bin	0.00035	0
bin	0.0004	14
bin	0.00045	0
bin	0.0005	0
bin	0.00055	0
bin	0.0006	0
bin	0.00065	0
bin	0.0007	0
bin	0.00075	6
bin	0.0008	0
bin	0.00085	0
bin	0.0009	0
bin	0.00095	0
bin	0.001	0
bin	0.00105	11
bin	0.0011	0
bin	0.00115	0
bin	0.0012	0
bin	0.00125	0
bin	0.0013	0
bin	0.00135	0
bin	0.0014	12
bin	0.00145	0
bin	0.0015	0
bin	0.00155	0
bin	0.0016	0
bin	0.00165	0
bin	0.0017	7
bin	0.00175	0
bin	0.0018	0
bin	0.00185	0
bin	0.0019	0
bin	0.00195	0
bin	0.002	6
bin	0.00205	0
bin	0.0021	0
bin	0.00215	0
bin	0.0022	0
bin	0.00225	0
bin	0.0023	0
bin	0.00235	8
bin	0.0024	0
bin	0.00245	0
bin	0.0025	0
bin	0.00255	0
bin	0.0026	0
bin	0.00265	0
bin	0.0027	0
bin	0.00275	0
bin	0.0028	0
bin	0.00285	0
bin	0.0029	0
bin	0.00295	0
scalar RplNetwork100.host[1].wlan[0].mac.queue queueLength:max 1
attr interpolationmode sample-hold
attr source "count(packetPushed) - count(packetPopped) - count(packetRemoved) - count(packetDropped)"
attr title "queue length, max"
scalar RplNetwork100.host[1].wlan[0].mac.queue queueLength:timeavg 2.4736910755794e-05
attr interpolationmode sample-hold
attr source "count(packetPushed) - count(packetPopped) - count(packetRemoved) - count(packetDropped)"
attr title "queue length, timeavg"
scalar RplNetwork100.host[1].wlan[0].mac.queue packetPushed:count 76
attr interpolationmode none
attr title "packet pushed, count"
scalar RplNetwork100.host[1].wlan[0].mac.queue packetPushed:sum(packetBytes) 8428
attr interpolationmode none
attr title "packet pushed, sum(packetBytes)"
scalar RplNetwork100.host[1].wlan[0].mac.queue packetDropQueueOverflow:count 0
attr interpolationmode none
attr source packetDropReasonIsQueueOverflow(packetDropped)
attr title "packet drops: queue overflow, count"
scalar RplNetwork100.host[1].wlan[0].mac.queue packetDropQueueOverflow:sum(packetBytes) 0
attr interpolationmode none
attr source packetDropReasonIsQueueOverflow(packetDropped)
attr title "packet drops: queue overflow, sum(packetBytes)"
scalar RplNetwork100.host[1].wlan[0].mac.queue packetRemoved:count 0
attr interpolationmode none
attr title "packets removed, count"
scalar RplNetwork100.host[1].wlan[0].mac.queue packetRemoved:sum(packetBytes) 0
attr interpolationmode none
attr title "packets removed, sum(packetBytes)"
scalar RplNetwork100.host[1].wlan[0].mac nbTxFrames 84
scalar RplNetwork100.host[1].wlan[0].mac nbRxFrames 116
scalar RplNetwork100.host[1].wlan[0].mac nbDroppedFrames 0
scalar RplNetwork100.host[1].wlan[0].mac nbMissedAcks 0
scalar RplNetwork100.host[1].wlan[0].mac nbRecvdAcks 62
scalar RplNetwork100.host[1].wlan[0].mac nbTxAcks 62
scalar RplNetwork100.host[1].wlan[0].mac nbDuplicates 0
scalar RplNetwork100.host[1].wlan[0].mac meanBackoff 0.00096
scalar RplNetwork100.host[1].wlan[0].mac nbBackoffs 84
scalar RplNetwork100.host[1].wlan[0].mac backoffDurations 0.08064
scalar RplNetwork100.host[1].wlan[0].mac packetDropNotAddressToUs:count 116
attr interpolationmode none
attr source packetDropReasonIsNotAddressedToUs(packetDropped)
attr title "packet drop: not addressed to us, count"
scalar RplNetwork100.host[1].wlan[0].mac packetDropNotAddressToUs:sum(packetBytes) 13108
attr interpolationmode none
attr source packetDropReasonIsNotAddressedToUs(packetDropped)
attr title "packet drop: not addressed to us, sum(packetBytes)"
scalar RplNetwork100.host[1].wlan[0].mac packetDropIncorrectlyReceived:count 0
attr interpolationmode none
attr source packetDropReasonIsIncorrectlyReceived(packetDropped)
attr title "packet drop: incorrectly received, count"
scalar RplNetwork100.host[1].wlan[0].mac packetDropIncorrectlyReceived:sum(packetBytes) 0
attr interpolationmode none
attr source packetDropReasonIsIncorrectlyReceived(packetDropped)
attr title "packet drop: incorrectly received, sum(packetBytes)"
scalar RplNetwork100.host[1].wlan[0].mac packetDropQueueOverflow:count 0
attr interpolationmode none
attr source packetDropReasonIsQueueOverflow(packetDropped)
attr title "packet drop: queue overflow, count"
scalar RplNetwork100.host[1].wlan[0].mac packetDropQueueOverflow:sum(packetBytes) 0
attr interpolationmode none
attr source packetDropReasonIsQueueOverflow(packetDropped)
attr title "packet drop: queue overflow, sum(packetBytes)"
scalar RplNetwork100.host[1].wlan[0].mac packetDropRetryLimitReached:count 0
attr interpolationmode none
attr source packetDropReasonIsRetryLimitReached(packetDropped)
attr title "packet drop: retry limit reached, count"
scalar RplNetwork100.host[1].wlan[0].mac packetDropRetryLimitReached:sum(packetBytes) 0
attr interpolationmode none
attr source packetDropReasonIsRetryLimitReached(packetDropped)
attr title "packet drop: retry limit reached, sum(packetBytes)"
scalar RplNetwork100.host[1].wlan[0].mac packetDropBackoffLimitReached:count 0
attr interpolationmode none
attr source packetDropReasonIsCongestion(packetDropped)
attr title "packet drop: backoff limit reached, count"
scalar RplNetwork100.host[1].wlan[0].mac packetDropBackoffLimitReached:sum(packetBytes) 0
attr interpolationmode none
attr source packetDropReasonIsCongestion(packetDropped)
attr title "packet drop: backoff limit reached, sum(packetBytes)"
scalar RplNetwork100.host[1].wlan[0].mac linkBroken:count 0
attr interpolationmode none
attr source linkBroken
attr title "link break, count"
scalar RplNetwork100.host[1].wlan[0].radio radioMode:count 270
attr interpolationmode sample-hold
attr source radioModeChanged
attr title "Radio mode, count"
scalar RplNetwork100.host[1].wlan[0].radio receptionState:count 1356
attr interpolationmode sample-hold
attr source receptionStateChanged
attr title "Radio reception state, count"
scalar RplNetwork100.host[1].wlan[0].radio transmissionState:count 540
attr interpolationmode sample-hold
attr source transmissionStateChanged
attr title "Radio transmission state, count"
statistic RplNetwork100.host[1].wlan[0].radio minSnir:histogram
field count 278
field mean 695.35211956372
field stddev 31.924067850089
field min 164.98621584372
field max 697.26679791649
field sum 193307.88923871
field sqrsum 134699353.98247
attr source minimumSnir(packetSentToUpper)
attr title "Min SNIR, histogram"
bin	-inf	0
bin	160	1
bin	170	0
bin	180	0
bin	190	0
bin	200	0
bin	210	0
bin	220	0
bin	230	0
bin	240	0
bin	250	0
bin	260	0
bin	270	0
bin	280	0
bin	290	0
bin	300	0
bin	310	0
bin	320	0
bin	330	0
bin	340	0
bin	350	0
bin	360	0
bin	370	0
bin	380	0
bin	390	0
bin	400	0
bin	410	0
bin	420	0
bin	430	0
bin	440	0
bin	450	0
bin	460	0
bin	470	0
bin	480	0
bin	490	0
bin	500	0
bin	510	0
bin	520	0
bin	530	0
bin	540	0
bin	550	0
bin	560	0
bin	570	0
bin	580	0
bin	590	0
bin	600	0
bin	610	0
bin	620	0
bin	630	0
bin	640	0
bin	650	0
bin	660	0
bin	670	0
bin	680	0
bin	690	277
bin	700	0
statistic RplNetwork100.host[1].wlan[0].radio packetErrorRate:histogram
field count 278
field mean 0
field stddev 0
field min 0
field max 0
field sum 0
field sqrsum 0
attr source packetErrorRate(packetSentToUpper)
attr title "Packet error rate, histogram"
bin	-inf	0
bin	-0.5	0
bin	-0.48	0
bin	-0.46	0
bin	-0.44	0
bin	-0.42	0
bin	-0.4	0
bin	-0.38	0
bin	-0.36	0
bin	-0.34	0
bin	-0.32	0
bin	-0.3	0
bin	-0.28	0
bin	-0.26	0
bin	-0.24	0
bin	-0.22	0
bin	-0.2	0
bin	-0.18	0
bin	-0.16	0
bin	-0.14	0
bin	-0.12	0
bin	-0.1	0
bin	-0.08	0
bin	-0.06	0
bin	-0.04	0
bin	-0.02	0
bin	0	278
bin	0.02	0
bin	0.04	0
bin	0.06	0
bin	0.08	0
bin	0.1	0
bin	0.12	0
bin	0.14	0
bin	0.16	0
bin	0.18	0
bin	0.2	0
bin	0.22	0
bin	0.24	0
bin	0.26	0
bin	0.28	0
bin	0.3	0
bin	0.32	0
bin	0.34	0
bin	0.36	0
bin	0.38	0
bin	0.4	0
bin	0.42	0
bin	0.44	0
bin	0.46	0
bin	0.48	0
bin	0.5	0
statistic RplNetwork100.host[1].wlan[0].radio bitErrorRate:histogram
field count 278
field mean 0
field stddev 0
field min 0
field max 0
field sum 0
field sqrsum 0
attr source bitErrorRate(packetSentToUpper)
attr title "Bit error rate, histogram"
bin	-inf	0
bin	-0.5	0
bin	-0.48	0
bin	-0.46	0
bin	-0.44	0
bin	-0.42	0
bin	-0.4	0
bin	-0.38	0
bin	-0.36	0
bin	-0.34	0
bin	-0.32	0
bin	-0.3	0
bin	-0.28	0
bin	-0.26	0
bin	-0.24	0
bin	-0.22	0
bin	-0.2	0
bin	-0.18	0
bin	-0.16	0
bin	-0.14	0
bin	-0.12	0
bin	-0.1	0
bin	-0.08	0
bin	-0.06	0
bin	-0.04	0
bin	-0.02	0
bin	0	278
bin	0.02	0
bin	0.04	0
bin	0.06	0
bin	0.08	0
bin	0.1	0
bin	0.12	0
bin	0.14	0
bin	0.16	0
bin	0.18	0
bin	0.2	0
bin	0.22	0
bin	0.24	0
bin	0.26	0
bin	0.28	0
bin	0.3	0
bin	0.32	0
bin	0.34	0
bin	0.36	0
bin	0.38	0
bin	0.4	0
bin	0.42	0
bin	0.44	0
bin	0.46	0
bin	0.48	0
bin	0.5	0
statistic RplNetwork100.host[1].wlan[0].radio symbolErrorRate:histogram
field count 0
field mean -nan
field stddev -nan
field min -nan
field max -nan
field sum 0
field sqrsum 0
attr source symbolErrorRate(packetSentToUpper)
attr title "Symbol error rate, histogram"
bin	-inf	0
bin	0	0
bin	1	0
scalar RplNetwork100.host[1].ipv6.neighbourDiscovery startDad:count 0
attr title "DAD started, count"
scalar RplNetwork100.host[1].udp packetReceived:count 0
attr interpolationmode none
attr source packetReceived
attr title "packets received, count"
scalar RplNetwork100.host[1].udp packetReceived:sum(packetBytes) 0
attr interpolationmode none
attr source packetReceived
attr title "packets received, sum(packetBytes)"
scalar RplNetwork100.host[1].udp packetSent:count 59
attr interpolationmode none
attr source packetSent
attr title "packets sent, count"
scalar RplNetwork100.host[1].udp packetSent:sum(packetBytes) 3776
attr interpolationmode none
attr source packetSent
attr title "packets sent, sum(packetBytes)"
scalar RplNetwork100.host[1].udp passedUpPk:count 0
attr interpolationmode none
attr source packetSentToUpper
attr title "packets passed up, count"
scalar RplNetwork100.host[1].udp droppedPkWrongPort:count 0
attr interpolationmode none
attr source packetDropReasonIsNoPortFound(packetDropped)
attr title "packets dropped (wrong port), count"
scalar RplNetwork100.host[1].udp droppedPkBadChecksum:count 0
attr interpolationmode none
attr source packetDropReasonIsIncorrectlyReceived(packetDropped)
attr title "packets dropped (checksum error), count"
scalar RplNetwork100.host[1].app[0] "packets sent" 59
scalar RplNetwork100.host[1].app[0] "packets received" 0
scalar RplNetwork100.host[1].app[0] packetReceived:count 0
attr interpolationmode none
attr source packetReceived
attr title "packets received, count"
scalar RplNetwork100.host[1].app[0] packetReceived:sum(packetBytes) 0
attr interpolationmode none
attr source packetReceived
attr title "packets received, sum(packetBytes)"
statistic RplNetwork100.host[1].app[0] rcvdPkLifetime:stats
field count 0
field mean -nan
field stddev -nan
field min -nan
field max -nan
field sum 0
field sqrsum 0
attr interpolationmode none
attr source dataAge(packetReceived)
attr title "received packet lifetime, stats"
attr unit s
scalar RplNetwork100.host[1].app[0] packetSent:count 59
attr interpolationmode none
attr source packetSent
attr title "packets sent, count"
scalar RplNetwork100.host[1].app[0] packetSent:sum(packetBytes) 3304
attr interpolationmode none
attr source packetSent
attr title "packets sent, sum(packetBytes)"
scalar RplNetwork100.host[1].rpl rank 9
scalar RplNetwork100.host[1].rpl parentId 2
scalar RplNetwork100.host[1].rpl parentUnreachable:count 0
attr interpolationmode none
attr source parentUnreachable
attr title "Preferred parent unreachability detected, count"
scalar RplNetwork100.host[1].rpl rankUpdated:count 0
attr interpolationmode none
attr source rankUpdated
attr title "Rank is updated, count"
scalar RplNetwork100.host[1].rpl parentChanged:count 0
attr interpolationmode none
attr source parentChanged
attr title "Preferred parent has changed, count"
scalar RplNetwork100.host[1].rpl daoReceived:count 0
attr interpolationmode none
attr source daoReceived
attr title "DAO packets received, count"
scalar RplNetwork100.host[1].rpl dioReceived:count 13
attr interpolationmode none
attr source dioReceived
attr title "DIO packets received, count"
scalar RplNetwork100.host[2].energyStorage residualEnergyCapacity:last -7.2342319919604
attr interpolationmode linear
attr source residualEnergyCapacityChanged
attr title "Residual energy capacity, last"
scalar RplNetwork100.host[2].lo[0].lo rcvdPkFromHl:count 0
attr interpolationmode none
attr source packetReceivedFromUpper
attr title "packets received from higher layer, count"
scalar RplNetwork100.host[2].lo[0].lo rcvdPkFromHl:sum(packetBytes) 0
attr interpolationmode none
attr source packetReceivedFromUpper
attr title "packets received from higher layer, sum(packetBytes)"
scalar RplNetwork100.host[2].lo[0].lo passedUpPk:count 0
attr interpolationmode none
attr source packetSentToUpper
attr title "packets passed to higher layer, count"
scalar RplNetwork100.host[2].lo[0].lo passedUpPk:sum(packetBytes) 0
attr interpolationmode none
attr source packetSentToUpper
attr title "packets passed to higher layer, sum(packetBytes)"
scalar RplNetwork100.host[2].wlan[0].mac.queue packetPopped:count 72
attr interpolationmode none
attr title "packet popped, count"
scalar RplNetwork100.host[2].wlan[0].mac.queue packetPopped:sum(packetBytes) 7976
attr interpolationmode none
attr title "packet popped, sum(packetBytes)"
statistic RplNetwork100.host[2].wlan[0].mac.queue queueingTime:histogram
field count 72
field mean 0.0013591111111111
field stddev 0.0007683374323926
field min 0.000128
field max 0.002368
field sum 0.097856
field sqrsum 0.000174911488
attr interpolationmode none
attr source queueingTime(packetPopped)
attr title "queueing times, histogram"
attr unit s
bin	-inf	0
bin	0	0
bin	5e-05	0
bin	0.0001	7
bin	0.00015	0
bin	0.0002	0
bin	0.00025	0
bin	0.0003	0
bin	0.00035	0
bin	0.0004	9
bin	0.00045	0
bin	0.0005	0
bin	0.00055	0
bin	0.0006	0
bin	0.00065	0
bin	0.0007	0
bin	0.00075	9
bin	0.0008	0
bin	0.00085	0
bin	0.0009	0
bin	0.00095	0
bin	0.001	0
bin	0.00105	7
bin	0.0011	0
bin	0.00115	0
bin	0.0012	0
bin	0.00125	0
bin	0.0013	0
bin	0.00135	0
bin	0.0014	9
bin	0.00145	0
bin	0.0015	0
bin	0.00155	0
bin	0.0016	0
bin	0.00165	0
bin	0.0017	8
bin	0.00175	0
bin	0.0018	0
bin	0.00185	0
bin	0.0019	0
bin	0.00195	0
bin	0.002	8
bin	0.00205	0
bin	0.0021	0
bin	0.00215	0
bin	0.0022	0
bin	0.00225	0
bin	0.0023	0
bin	0.00235	15
bin	0.0024	0
bin	0.00245	0
bin	0.0025	0
bin	0.00255	0
bin	0.0026	0
bin	0.00265	0
bin	0.0027	0
bin	0.00275	0
bin	0.0028	0
bin	0.00285	0
bin	0.0029	0
bin	0.00295	0
scalar RplNetwork100.host[2].wlan[0].mac.queue queueLength:max 1
attr interpolationmode sample-hold
attr source "count(packetPushed) - count(packetPopped) - count(packetRemoved) - count(packetDropped)"
attr title "queue length, max"
scalar RplNetwork100.host[2].wlan[0].mac.queue queueLength:timeavg 2.7921038247981e-05
attr interpolationmode sample-hold
attr source "count(packetPushed) - count(packetPopped) - count(packetRemoved) - count(packetDropped)"
attr title "queue length, timeavg"
scalar RplNetwork100.host[2].wlan[0].mac.queue packetPushed:count 72
attr interpolationmode none
attr title "packet pushed, count"
scalar RplNetwork100.host[2].wlan[0].mac.queue packetPushed:sum(packetBytes) 7976
attr interpolationmode none
attr title "packet pushed, sum(packetBytes)"
scalar RplNetwork100.host[2].wlan[0].mac.queue packetDropQueueOverflow:count 0
attr interpolationmode none
attr source packetDropReasonIsQueueOverflow(packetDropped)
attr title "packet drops: queue overflow, count"
scalar RplNetwork100.host[2].wlan[0].mac.queue packetDropQueueOverflow:sum(packetBytes) 0
attr interpolationmode none
attr source packetDropReasonIsQueueOverflow(packetDropped)
attr title "packet drops: queue overflow, sum(packetBytes)"
scalar RplNetwork100.host[2].wlan[0].mac.queue packetRemoved:count 0
attr interpolationmode none
attr title "packets removed, count"
scalar RplNetwork100.host[2].wlan[0].mac.queue packetRemoved:sum(packetBytes) 0
attr interpolationmode none
attr title "packets removed, sum(packetBytes)"
scalar RplNetwork100.host[2].wlan[0].mac nbTxFrames 80
scalar RplNetwork100.host[2].wlan[0].mac nbRxFrames 126
scalar RplNetwork100.host[2].wlan[0].mac nbDroppedFrames 0
scalar RplNetwork100.host[2].wlan[0].mac nbMissedAcks 0
scalar RplNetwork100.host[2].wlan[0].mac nbRecvdAcks 63
scalar RplNetwork100.host[2].wlan[0].mac nbTxAcks 64
scalar RplNetwork100.host[2].wlan[0].mac nbDuplicates 0
scalar RplNetwork100.host[2].wlan[0].mac meanBackoff 0.001204
scalar RplNetwork100.host[2].wlan[0].mac nbBackoffs 80
scalar RplNetwork100.host[2].wlan[0].mac backoffDurations 0.09632
scalar RplNetwork100.host[2].wlan[0].mac packetDropNotAddressToUs:count 352
attr interpolationmode none
attr source packetDropReasonIsNotAddressedToUs(packetDropped)
attr title "packet drop: not addressed to us, count"
scalar RplNetwork100.host[2].wlan[0].mac packetDropNotAddressToUs:sum(packetBytes) 14396
attr interpolationmode none
attr source packetDropReasonIsNotAddressedToUs(packetDropped)
attr title "packet drop: not addressed to us, sum(packetBytes)"
scalar RplNetwork100.host[2].wlan[0].mac packetDropIncorrectlyReceived:count 0
attr interpolationmode none
attr source packetDropReasonIsIncorrectlyReceived(packetDropped)
attr title "packet drop: incorrectly received, count"
scalar RplNetwork100.host[2].wlan[0].mac packetDropIncorrectlyReceived:sum(packetBytes) 0
attr interpolationmode none
attr source packetDropReasonIsIncorrectlyReceived(packetDropped)
attr title "packet drop: incorrectly received, sum(packetBytes)"
scalar RplNetwork100.host[2].wlan[0].mac packetDropQueueOverflow:count 0
attr interpolationmode none
attr source packetDropReasonIsQueueOverflow(packetDropped)
attr title "packet drop: queue overflow, count"
scalar RplNetwork100.host[2].wlan[0].mac packetDropQueueOverflow:sum(packetBytes) 0
attr interpolationmode none
attr source packetDropReasonIsQueueOverflow(packetDropped)
attr title "packet drop: queue overflow, sum(packetBytes)"
scalar RplNetwork100.host[2].wlan[0].mac packetDropRetryLimitReached:count 0
attr interpolationmode none
attr source packetDropReasonIsRetryLimitReached(packetDropped)
attr title "packet drop: retry limit reached, count"
scalar RplNetwork100.host[2].wlan[0].mac packetDropRetryLimitReached:sum(packetBytes) 0
attr interpolationmode none
attr source packetDropReasonIsRetryLimitReached(packetDropped)
attr title "packet drop: retry limit reached, sum(packetBytes)"
scalar RplNetwork100.host[2].wlan[0].mac packetDropBackoffLimitReached:count 0
attr interpolationmode none
attr source packetDropReasonIsCongestion(packetDropped)
attr title "packet drop: backoff limit reached, count"
scalar RplNetwork100.host[2].wlan[0].mac packetDropBackoffLimitReached:sum(packetBytes) 0
attr interpolationmode none
attr source packetDropReasonIsCongestion(packetDropped)
attr title "packet drop: backoff limit reached, sum(packetBytes)"
scalar RplNetwork100.host[2].wlan[0].mac linkBroken:count 0
attr interpolationmode none
attr source linkBroken
attr title "link break, count"
scalar RplNetwork100.host[2].wlan[0].radio radioMode:count 262
attr interpolationmode sample-hold
attr source radioModeChanged
attr title "Radio mode, count"
scalar RplNetwork100.host[2].wlan[0].radio receptionState:count 1582
attr interpolationmode sample-hold
attr source receptionStateChanged
attr title "Radio reception state, count"
scalar RplNetwork100.host[2].wlan[0].radio transmissionState:count 524
attr interpolationmode sample-hold
attr source transmissionStateChanged
attr title "Radio transmission state, count"
statistic RplNetwork100.host[2].wlan[0].radio minSnir:histogram
field count 517
field mean 697.2667979165
field stddev 0
field min 697.26679791649
field max 697.26679791649
field sum 360486.93452283
field sqrsum 251355570.52546
attr source minimumSnir(packetSentToUpper)
attr title "Min SNIR, histogram"
bin	-inf	0
bin	696.76	0
bin	696.78	0
bin	696.8	0
bin	696.82	0
bin	696.84	0
bin	696.86	0
bin	696.88	0
bin	696.9	0
bin	696.92	0
bin	696.94	0
bin	696.96	0
bin	696.98	0
bin	697	0
bin	697.02	0
bin	697.04	0
bin	697.06	0
bin	697.08	0
bin	697.1	0
bin	697.12	0
bin	697.14	0
bin	697.16	0
bin	697.18	0
bin	697.2	0
bin	697.22	0
bin	697.24	0
bin	697.26	517
bin	697.28	0
bin	697.3	0
bin	697.32	0
bin	697.34	0
bin	697.36	0
bin	697.38	0
bin	697.4	0
bin	697.42	0
bin	697.44	0
bin	697.46	0
bin	697.48	0
bin	697.5	0
bin	697.52	0
bin	697.54	0
bin	697.56	0
bin	697.58	0
bin	697.6	0
bin	697.62	0
bin	697.64	0
bin	697.66	0
bin	697.68	0
bin	697.7	0
bin	697.72	0
bin	697.74	0
bin	697.76	0
bin	697.78	0
statistic RplNetwork100.host[2].wlan[0].radio packetErrorRate:histogram
field count 517
field mean 0
field stddev 0
field min 0
field max 0
field sum 0
field sqrsum 0
attr source packetErrorRate(packetSentToUpper)
attr title "Packet error rate, histogram"
bin	-inf	0
bin	-0.5	0
bin	-0.48	0
bin	-0.46	0
bin	-0.44	0
bin	-0.42	0
bin	-0.4	0
bin	-0.38	0
bin	-0.36	0
bin	-0.34	0
bin	-0.32	0
bin	-0.3	0
bin	-0.28	0
bin	-0.26	0
bin	-0.24	0
bin	-0.22	0
bin	-0.2	0
bin	-0.18	0
bin	-0.16	0
bin	-0.14	0
bin	-0.12	0
bin	-0.1	0
bin	-0.08	0
bin	-0.06	0
bin	-0.04	0
bin	-0.02	0
bin	0	517
bin	0.02	0
bin	0.04	0
bin	0.06	0
bin	0.08	0
bin	0.1	0
bin	0.12	0
bin	0.14	0
bin	0.16	0
bin	0.18	0
bin	0.2	0
bin	0.22	0
bin	0.24	0
bin	0.26	0
bin	0.28	0
bin	0.3	0
bin	0.32	0
bin	0.34	0
bin	0.36	0
bin	0.38	0
bin	0.4	0
bin	0.42	0
bin	0.44	0
bin	0.46	0
bin	0.48	0
bin	0.5	0
statistic RplNetwork100.host[2].wlan[0].radio bitErrorRate:histogram
field count 517
field mean 0
field stddev 0
field min 0
field max 0
field sum 0
field sqrsum 0
attr source bitErrorRate(packetSentToUpper)
attr title "Bit error rate, histogram"
bin	-inf	0
bin	-0.5	0
bin	-0.48	0
bin	-0.46	0
bin	-0.44	0
bin	-0.42	0
bin	-0.4	0
bin	-0.38	0
bin	-0.36	0
bin	-0.34	0
bin	-0.32	0
bin	-0.3	0
bin	-0.28	0
bin	-0.26	0
bin	-0.24	0
bin	-0.22	0
bin	-0.2	0
bin	-0.18	0
bin	-0.16	0
bin	-0.14	0
bin	-0.12	0
bin	-0.1	0
bin	-0.08	0
bin	-0.06	0
bin	-0.04	0
bin	-0.02	0
bin	0	517
bin	0.02	0
bin	0.04	0
bin	0.06	0
bin	0.08	0
bin	0.1	0
bin	0.12	0
bin	0.14	0
bin	0.16	0
bin	0.18	0
bin	0.2	0
bin	0.22	0
bin	0.24	0
bin	0.26	0
bin	0.28	0
bin	0.3	0
bin	0.32	0
bin	0.34	0
bin	0.36	0
bin	0.38	0
bin	0.4	0
bin	0.42	0
bin	0.44	0
bin	0.46	0
bin	0.48	0
bin	0.5	0
statistic RplNetwork100.host[2].wlan[0].radio symbolErrorRate:histogram
field count 0
field mean -nan
field stddev -nan
field min -nan
field max -nan
field sum 0
field sqrsum 0
attr source symbolErrorRate(packetSentToUpper)
attr title "Symbol error rate, histogram"
bin	-inf	0
bin	0	0
bin	1	0
scalar RplNetwork100.host[2].ipv6.neighbourDiscovery startDad:count 0
attr title "DAD started, count"
scalar RplNetwork100.host[2].udp packetReceived:count 0
attr interpolationmode none
attr source packetReceived
attr title "packets received, count"
scalar RplNetwork100.host[2].udp packetReceived:sum(packetBytes) 0
attr interpolationmode none
attr source packetReceived
attr title "packets received, sum(packetBytes)"
scalar RplNetwork100.host[2].udp packetSent:count 58
attr interpolationmode none
attr source packetSent
attr title "packets sent, count"
scalar RplNetwork100.host[2].udp packetSent:sum(packetBytes) 3712
attr interpolationmode none
attr source packetSent
attr title "packets sent, sum(packetBytes)"
scalar RplNetwork100.host[2].udp passedUpPk:count 0
attr interpolationmode none
attr source packetSentToUpper
attr title "packets passed up, count"
scalar RplNetwork100.host[2].udp droppedPkWrongPort:count 0
attr interpolationmode none
attr source packetDropReasonIsNoPortFound(packetDropped)
attr title "packets dropped (wrong port), count"
scalar RplNetwork100.host[2].udp droppedPkBadChecksum:count 0
attr interpolationmode none
attr source packetDropReasonIsIncorrectlyReceived(packetDropped)
attr title "packets dropped (checksum error), count"
scalar RplNetwork100.host[2].app[0] "packets sent" 58
scalar RplNetwork100.host[2].app[0] "packets received" 0
scalar RplNetwork100.host[2].app[0] packetReceived:count 0
attr interpolationmode none
attr source packetReceived
attr title "packets received, count"
scalar RplNetwork100.host[2].app[0] packetReceived:sum(packetBytes) 0
attr interpolationmode none
attr source packetReceived
attr title "packets received, sum(packetBytes)"
statistic RplNetwork100.host[2].app[0] rcvdPkLifetime:stats
field count 0
field mean -nan
field stddev -nan
field min -nan
field max -nan
field sum 0
field sqrsum 0
attr interpolationmode none
attr source dataAge(packetReceived)
attr title "received packet lifetime, stats"
attr unit s
scalar RplNetwork100.host[2].app[0] packetSent:count 58
attr interpolationmode none
attr source packetSent
attr title "packets sent, count"
scalar RplNetwork100.host[2].app[0] packetSent:sum(packetBytes) 3248
attr interpolationmode none
attr source packetSent
attr title "packets sent, sum(packetBytes)"
scalar RplNetwork100.host[2].rpl rank 8
scalar RplNetwork100.host[2].rpl parentId 12
scalar RplNetwork100.host[2].rpl parentUnreachable:count 0
attr interpolationmode none
attr source parentUnreachable
attr title "Preferred parent unreachability detected, count"
scalar RplNetwork100.host[2].rpl rankUpdated:count 0
attr interpolationmode none
attr source rankUpdated
attr title "Rank is updated, count"
scalar RplNetwork100.host[2].rpl parentChanged:count 0
attr interpolationmode none
attr source parentChanged
attr title "Preferred parent has changed, count"
scalar RplNetwork100.host[2].rpl daoReceived:count 0
attr interpolationmode none
attr source daoReceived
attr title "DAO packets received, count"
scalar RplNetwork100.host[2].rpl dioReceived:count 13
attr interpolationmode none
attr source dioReceived
attr title "DIO packets received, count"
scalar RplNetwork100.host[3].energyStorage residualEnergyCapacity:last -7.1493530440751
attr interpolationmode linear
attr source residualEnergyCapacityChanged
attr title "Residual energy capacity, last"
scalar RplNetwork100.host[3].lo[0].lo rcvdPkFromHl:count 0
attr interpolationmode none
attr source packetReceivedFromUpper
attr title "packets received from higher layer, count"
scalar RplNetwork100.host[3].lo[0].lo rcvdPkFromHl:sum(packetBytes) 0
attr interpolationmode none
attr source packetReceivedFromUpper
attr title "packets received from higher layer, sum(packetBytes)"
scalar RplNetwork100.host[3].lo[0].lo passedUpPk:count 0
attr interpolationmode none
attr source packetSentToUpper
attr title "packets passed to higher layer, count"
scalar RplNetwork100.host[3].lo[0].lo passedUpPk:sum(packetBytes) 0
attr interpolationmode none
attr source packetSentToUpper
attr title "packets passed to higher layer, sum(packetBytes)"
scalar RplNetwork100.host[3].wlan[0].mac.queue packetPopped:count 75
attr interpolationmode none
attr title "packet popped, count"
scalar RplNetwork100.host[3].wlan[0].mac.queue packetPopped:sum(packetBytes) 8275
attr interpolationmode none
attr title "packet popped, sum(packetBytes)"
statistic RplNetwork100.host[3].wlan[0].mac.queue queueingTime:histogram
field count 75
field mean 0.0012117333333333
field stddev 0.0007603462463999
field min 0.000128
field max 0.002368
field sum 0.09088
field sqrsum 0.00015290368
attr interpolationmode none
attr source queueingTime(packetPopped)
attr title "queueing times, histogram"
attr unit s
bin	-inf	0
bin	0	0
bin	5e-05	0
bin	0.0001	11
bin	0.00015	0
bin	0.0002	0
bin	0.00025	0
bin	0.0003	0
bin	0.00035	0
bin	0.0004	10
bin	0.00045	0
bin	0.0005	0
bin	0.00055	0
bin	0.0006	0
bin	0.00065	0
bin	0.0007	0
bin	0.00075	8
bin	0.0008	0
bin	0.00085	0
bin	0.0009	0
bin	0.00095	0
bin	0.001	0
bin	0.00105	13
bin	0.0011	0
bin	0.00115	0
bin	0.0012	0
bin	0.00125	0
bin	0.0013	0
bin	0.00135	0
bin	0.0014	6
bin	0.00145	0
bin	0.0015	0
bin	0.00155	0
bin	0.0016	0
bin	0.00165	0
bin	0.0017	6
bin	0.00175	0
bin	0.0018	0
bin	0.00185	0
bin	0.0019	0
bin	0.00195	0
bin	0.002	12
bin	0.00205	0
bin	0.0021	0
bin	0.00215	0
bin	0.0022	0
bin	0.00225	0
bin	0.0023	0
bin	0.00235	9
bin	0.0024	0
bin	0.00245	0
bin	0.0025	0
bin	0.00255	0
bin	0.0026	0
bin	0.00265	0
bin	0.0027	0
bin	0.00275	0
bin	0.0028	0
bin	0.00285	0
bin	0.0029	0
bin	0.00295	0
scalar RplNetwork100.host[3].wlan[0].mac.queue queueLength:max 1
attr interpolationmode sample-hold
attr source "count(packetPushed) - count(packetPopped) - count(packetRemoved) - count(packetDropped)"
attr title "queue length, max"
scalar RplNetwork100.host[3].wlan[0].mac.queue queueLength:timeavg 2.6044100794776e-05
attr interpolationmode sample-hold
attr source "count(packetPushed) - count(packetPopped) - count(packetRemoved) - count(packetDropped)"
attr title "queue length, timeavg"
scalar RplNetwork100.host[3].wlan[0].mac.queue packetPushed:count 75
attr interpolationmode none
attr title "packet pushed, count"
scalar RplNetwork100.host[3].wlan[0].mac.queue packetPushed:sum(packetBytes) 8275
attr interpolationmode none
attr title "packet pushed, sum(packetBytes)"
scalar RplNetwork100.host[3].wlan[0].mac.queue packetDropQueueOverflow:count 0
attr interpolationmode none
attr source packetDropReasonIsQueueOverflow(packetDropped)
attr title "packet drops: queue overflow, count"
scalar RplNetwork100.host[3].wlan[0].mac.queue packetDropQueueOverflow:sum(packetBytes) 0
attr interpolationmode none
attr source packetDropReasonIsQueueOverflow(packetDropped)
attr title "packet drops: queue overflow, sum(packetBytes)"
scalar RplNetwork100.host[3].wlan[0].mac.queue packetRemoved:count 0
attr interpolationmode none
attr title "packets removed, count"
scalar RplNetwork100.host[3].wlan[0].mac.queue packetRemoved:sum(packetBytes) 0
attr interpolationmode none
attr title "packets removed, sum(packetBytes)"
scalar RplNetwork100.host[3].wlan[0].mac nbTxFrames 81
scalar RplNetwork100.host[3].wlan[0].mac nbRxFrames 171
scalar RplNetwork100.host[3].wlan[0].mac nbDroppedFrames 0
scalar RplNetwork100.host[3].wlan[0].mac nbMissedAcks 0
scalar RplNetwork100.host[3].wlan[0].mac nbRecvdAcks 60
scalar RplNetwork100.host[3].wlan[0].mac nbTxAcks 119
scalar RplNetwork100.host[3].wlan[0].mac nbDuplicates 0
scalar RplNetwork100.host[3].wlan[0].mac meanBackoff 0.0010864197530864
scalar RplNetwork100.host[3].wlan[0].mac nbBackoffs 81
scalar RplNetwork100.host[3].wlan[0].mac backoffDurations 0.088
scalar RplNetwork100.host[3].wlan[0].mac packetDropNotAddressToUs:count 590
attr interpolationmode none
attr source packetDropReasonIsNotAddressedToUs(packetDropped)
attr title "packet drop: not addressed to us, count"
scalar RplNetwork100.host[3].wlan[0].mac packetDropNotAddressToUs:sum(packetBytes) 47446
attr interpolationmode none
attr source packetDropReasonIsNotAddressedToUs(packetDropped)
attr title "packet drop: not addressed to us, sum(packetBytes)"
scalar RplNetwork100.host[3].wlan[0].mac packetDropIncorrectlyReceived:count 0
attr interpolationmode none
attr source packetDropReasonIsIncorrectlyReceived(packetDropped)
attr title "packet drop: incorrectly received, count"
scalar RplNetwork100.host[3].wlan[0].mac packetDropIncorrectlyReceived:sum(packetBytes) 0
attr interpolationmode none
attr source packetDropReasonIsIncorrectlyReceived(packetDropped)
attr title "packet drop: incorrectly received, sum(packetBytes)"
scalar RplNetwork100.host[3].wlan[0].mac packetDropQueueOverflow:count 0
attr interpolationmode none
attr source packetDropReasonIsQueueOverflow(packetDropped)
attr title "packet drop: queue overflow, count"
scalar RplNetwork100.host[3].wlan[0].mac packetDropQueueOverflow:sum(packetBytes) 0
attr interpolationmode none
attr source packetDropReasonIsQueueOverflow(packetDropped)
attr title "packet drop: queue overflow, sum(packetBytes)"
scalar RplNetwork100.host[3].wlan[0].mac packetDropRetryLimitReached:count 0
attr interpolationmode none
attr source packetDropReasonIsRetryLimitReached(packetDropped)
attr title "packet drop: retry limit reached, count"
scalar RplNetwork100.host[3].wlan[0].mac packetDropRetryLimitReached:sum(packetBytes) 0
attr interpolationmode none
attr source packetDropReasonIsRetryLimitReached(packetDropped)
attr title "packet drop: retry limit reached, sum(packetBytes)"
scalar RplNetwork100.host[3].wlan[0].mac packetDropBackoffLimitReached:count 0
attr interpolationmode none
attr source packetDropReasonIsCongestion(packetDropped)
attr title "packet drop: backoff limit reached, count"
scalar RplNetwork100.host[3].wlan[0].mac packetDropBackoffLimitReached:sum(packetBytes) 0
attr interpolationmode none
attr source packetDropReasonIsCongestion(packetDropped)
attr title "packet drop: backoff limit reached, sum(packetBytes)"
scalar RplNetwork100.host[3].wlan[0].mac linkBroken:count 0
attr interpolationmode none
attr source linkBroken
attr title "link break, count"
scalar RplNetwork100.host[3].wlan[0].radio radioMode:count 386
attr interpolationmode sample-hold
attr source radioModeChanged
attr title "Radio mode, count"
scalar RplNetwork100.host[3].wlan[0].radio receptionState:count 3242
attr interpolationmode sample-hold
attr source receptionStateChanged
attr title "Radio reception state, count"
scalar RplNetwork100.host[3].wlan[0].radio transmissionState:count 772
attr interpolationmode sample-hold
attr source transmissionStateChanged
attr title "Radio transmission state, count"
statistic RplNetwork100.host[3].wlan[0].radio minSnir:histogram
field count 810
field mean 695.34263467348
field stddev 32.238980277388
field min 41.979091432339
field max 697.26679791649
field sum 563227.53408552
field sqrsum 392476953.11778
attr source minimumSnir(packetSentToUpper)
attr title "Min SNIR, histogram"
bin	-inf	0
bin	40	1
bin	50	0
bin	60	0
bin	70	0
bin	80	0
bin	90	0
bin	100	0
bin	110	0
bin	120	0
bin	130	0
bin	140	0
bin	150	0
bin	160	0
bin	170	0
bin	180	1
bin	190	0
bin	200	0
bin	210	0
bin	220	0
bin	230	0
bin	240	0
bin	250	0
bin	260	0
bin	270	0
bin	280	0
bin	290	0
bin	300	1
bin	310	0
bin	320	0
bin	330	0
bin	340	0
bin	350	0
bin	360	0
bin	370	0
bin	380	0
bin	390	0
bin	400	0
bin	410	0
bin	420	0
bin	430	0
bin	440	0
bin	450	0
bin	460	0
bin	470	0
bin	480	0
bin	490	0
bin	500	0
bin	510	0
bin	520	0
bin	530	0
bin	540	0
bin	550	0
bin	560	0
bin	570	0
bin	580	0
bin	590	0
bin	600	0
bin	610	0
bin	620	0
bin	630	0
bin	640	0
bin	650	0
bin	660	0
bin	670	0
bin	680	0
bin	690	807
bin	700	0
statistic RplNetwork100.host[3].wlan[0].radio packetErrorRate:histogram
field count 810
field mean 0
field stddev 0
field min 0
field max 0
field sum 0
field sqrsum 0
attr source packetErrorRate(packetSentToUpper)
attr title "Packet error rate, histogram"
bin	-inf	0
bin	-0.5	0
bin	-0.48	0
bin	-0.46	0
bin	-0.44	0
bin	-0.42	0
bin	-0.4	0
bin	-0.38	0
bin	-0.36	0
bin	-0.34	0
bin	-0.32	0
bin	-0.3	0
bin	-0.28	0
bin	-0.26	0
bin	-0.24	0
bin	-0.22	0
bin	-0.2	0
bin	-0.18	0
bin	-0.16	0
bin	-0.14	0
bin	-0.12	0
bin	-0.1	0
bin	-0.08	0
bin	-0.06	0
bin	-0.04	0
bin	-0.02	0
bin	0	810
bin	0.02	0
bin	0.04	0
bin	0.06	0
bin	0.08	0
bin	0.1	0
bin	0.12	0
bin	0.14	0
bin	0.16	0
bin	0.18	0
bin	0.2	0
bin	0.22	0
bin	0.24	0
bin	0.26	0
bin	0.28	0
bin	0.3	0
bin	0.32	0
bin	0.34	0
bin	0.36	0
bin	0.38	0
bin	0.4	0
bin	0.42	0
bin	0.44	0
bin	0.46	0
bin	0.48	0
bin	0.5	0
statistic RplNetwork100.host[3].wlan[0].radio bitErrorRate:histogram
field count 810
field mean 2.4026877196998e-185
field stddev 0
field min 0
field max 1.9461770529569e-182
field sum 1.9461770529569e-182
field sqrsum 0
attr source bitErrorRate(packetSentToUpper)
attr title "Bit error rate, histogram"
bin	-inf	0
bin	-0.5	0
bin	-0.48	0
bin	-0.46	0
bin	-0.44	0
bin	-0.42	0
bin	-0.4	0
bin	-0.38	0
bin	-0.36	0
bin	-0.34	0
bin	-0.32	0
bin	-0.3	0
bin	-0.28	0
bin	-0.26	0
bin	-0.24	0
bin	-0.22	0
bin	-0.2	0
bin	-0.18	0
bin	-0.16	0
bin	-0.14	0
bin	-0.12	0
bin	-0.1	0
bin	-0.08	0
bin	-0.06	0
bin	-0.04	0
bin	-0.02	0
bin	0	810
bin	0.02	0
bin	0.04	0
bin	0.06	0
bin	0.08	0
bin	0.1	0
bin	0.12	0
bin	0.14	0
bin	0.16	0
bin	0.18	0
bin	0.2	0
bin	0.22	0
bin	0.24	0
bin	0.26	0
bin	0.28	0
bin	0.3	0
bin	0.32	0
bin	0.34	0
bin	0.36	0
bin	0.38	0
bin	0.4	0
bin	0.42	0
bin	0.44	0
bin	0.46	0
bin	0.48	0
bin	0.5	0
statistic RplNetwork100.host[3].wlan[0].radio symbolErrorRate:histogram
field count 0
field mean -nan
field stddev -nan
field min -nan
field max -nan
field sum 0
field sqrsum 0
attr source symbolErrorRate(packetSentToUpper)
attr title "Symbol error rate, histogram"
bin	-inf	0
bin	0	0
bin	1	0
scalar RplNetwork100.host[3].ipv6.neighbourDiscovery startDad:count 0
attr title "DAD started, count"
scalar RplNetwork100.host[3].udp packetReceived:count 0
attr interpolationmode none
attr source packetReceived
attr title "packets received, count"
scalar RplNetwork100.host[3].udp packetReceived:sum(packetBytes) 0
attr interpolationmode none
attr source packetReceived
attr title "packets received, sum(packetBytes)"
[...]
attr interpolationmode sample-hold
attr source receptionStateChanged
attr title "Radio reception state, count"
scalar RplNetwork100.host[98].wlan[0].radio transmissionState:count 296
attr interpolationmode sample-hold
attr source transmissionStateChanged
attr title "Radio transmission state, count"
statistic RplNetwork100.host[98].wlan[0].radio minSnir:histogram
field count 279
field mean 696.6034906185
field stddev 11.079416206076
field min 512.20406177493
field max 697.26679791649
field sum 194352.37388256
field sqrsum 135420667.51943
attr source minimumSnir(packetSentToUpper)
attr title "Min SNIR, histogram"
bin	-inf	0
bin	465	0
bin	470	0
bin	475	0
bin	480	0
bin	485	0
bin	490	0
bin	495	0
bin	500	0
bin	505	0
bin	510	1
bin	515	0
bin	520	0
bin	525	0
bin	530	0
bin	535	0
bin	540	0
bin	545	0
bin	550	0
bin	555	0
bin	560	0
bin	565	0
bin	570	0
bin	575	0
bin	580	0
bin	585	0
bin	590	0
bin	595	0
bin	600	0
bin	605	0
bin	610	0
bin	615	0
bin	620	0
bin	625	0
bin	630	0
bin	635	0
bin	640	0
bin	645	0
bin	650	0
bin	655	0
bin	660	0
bin	665	0
bin	670	0
bin	675	0
bin	680	0
bin	685	0
bin	690	0
bin	695	278
bin	700	0
bin	705	0
bin	710	0
bin	715	0
bin	720	0
bin	725	0
bin	730	0
bin	735	0
bin	740	0
bin	745	0
statistic RplNetwork100.host[98].wlan[0].radio packetErrorRate:histogram
field count 279
field mean 0
field stddev 0
field min 0
field max 0
field sum 0
field sqrsum 0
attr source packetErrorRate(packetSentToUpper)
attr title "Packet error rate, histogram"
bin	-inf	0
bin	-0.5	0
bin	-0.48	0
bin	-0.46	0
bin	-0.44	0
bin	-0.42	0
bin	-0.4	0
bin	-0.38	0
bin	-0.36	0
bin	-0.34	0
bin	-0.32	0
bin	-0.3	0
bin	-0.28	0
bin	-0.26	0
bin	-0.24	0
bin	-0.22	0
bin	-0.2	0
bin	-0.18	0
bin	-0.16	0
bin	-0.14	0
bin	-0.12	0
bin	-0.1	0
bin	-0.08	0
bin	-0.06	0
bin	-0.04	0
bin	-0.02	0
bin	0	279
bin	0.02	0
bin	0.04	0
bin	0.06	0
bin	0.08	0
bin	0.1	0
bin	0.12	0
bin	0.14	0
bin	0.16	0
bin	0.18	0
bin	0.2	0
bin	0.22	0
bin	0.24	0
bin	0.26	0
bin	0.28	0
bin	0.3	0
bin	0.32	0
bin	0.34	0
bin	0.36	0
bin	0.38	0
bin	0.4	0
bin	0.42	0
bin	0.44	0
bin	0.46	0
bin	0.48	0
bin	0.5	0
statistic RplNetwork100.host[98].wlan[0].radio bitErrorRate:histogram
field count 279
field mean 0
field stddev 0
field min 0
field max 0
field sum 0
field sqrsum 0
attr source bitErrorRate(packetSentToUpper)
attr title "Bit error rate, histogram"
bin	-inf	0
bin	-0.5	0
bin	-0.48	0
bin	-0.46	0
bin	-0.44	0
bin	-0.42	0
bin	-0.4	0
bin	-0.38	0
bin	-0.36	0
bin	-0.34	0
bin	-0.32	0
bin	-0.3	0
bin	-0.28	0
bin	-0.26	0
bin	-0.24	0
bin	-0.22	0
bin	-0.2	0
bin	-0.18	0
bin	-0.16	0
bin	-0.14	0
bin	-0.12	0
bin	-0.1	0
bin	-0.08	0
bin	-0.06	0
bin	-0.04	0
bin	-0.02	0
bin	0	279
bin	0.02	0
bin	0.04	0
bin	0.06	0
bin	0.08	0
bin	0.1	0
bin	0.12	0
bin	0.14	0
bin	0.16	0
bin	0.18	0
bin	0.2	0
bin	0.22	0
bin	0.24	0
bin	0.26	0
bin	0.28	0
bin	0.3	0
bin	0.32	0
bin	0.34	0
bin	0.36	0
bin	0.38	0
bin	0.4	0
bin	0.42	0
bin	0.44	0
bin	0.46	0
bin	0.48	0
bin	0.5	0
statistic RplNetwork100.host[98].wlan[0].radio symbolErrorRate:histogram
field count 0
field mean -nan
field stddev -nan
field min -nan
field max -nan
field sum 0
field sqrsum 0
attr source symbolErrorRate(packetSentToUpper)
attr title "Symbol error rate, histogram"
bin	-inf	0
bin	0	0
bin	1	0
scalar RplNetwork100.host[98].ipv6.neighbourDiscovery startDad:count 0
attr title "DAD started, count"
scalar RplNetwork100.host[98].udp packetReceived:count 0
attr interpolationmode none
attr source packetReceived
attr title "packets received, count"
scalar RplNetwork100.host[98].udp packetReceived:sum(packetBytes) 0
attr interpolationmode none
attr source packetReceived
attr title "packets received, sum(packetBytes)"
scalar RplNetwork100.host[98].udp packetSent:count 58
attr interpolationmode none
attr source packetSent
attr title "packets sent, count"
scalar RplNetwork100.host[98].udp packetSent:sum(packetBytes) 3712
attr interpolationmode none
attr source packetSent
attr title "packets sent, sum(packetBytes)"
scalar RplNetwork100.host[98].udp passedUpPk:count 0
attr interpolationmode none
attr source packetSentToUpper
attr title "packets passed up, count"
scalar RplNetwork100.host[98].udp droppedPkWrongPort:count 0
attr interpolationmode none
attr source packetDropReasonIsNoPortFound(packetDropped)
attr title "packets dropped (wrong port), count"
scalar RplNetwork100.host[98].udp droppedPkBadChecksum:count 0
attr interpolationmode none
attr source packetDropReasonIsIncorrectlyReceived(packetDropped)
attr title "packets dropped (checksum error), count"
scalar RplNetwork100.host[98].app[0] "packets sent" 58
scalar RplNetwork100.host[98].app[0] "packets received" 0
scalar RplNetwork100.host[98].app[0] packetReceived:count 0
attr interpolationmode none
attr source packetReceived
attr title "packets received, count"
scalar RplNetwork100.host[98].app[0] packetReceived:sum(packetBytes) 0
attr interpolationmode none
attr source packetReceived
attr title "packets received, sum(packetBytes)"
statistic RplNetwork100.host[98].app[0] rcvdPkLifetime:stats
field count 0
field mean -nan
field stddev -nan
field min -nan
field max -nan
field sum 0
field sqrsum 0
attr interpolationmode none
attr source dataAge(packetReceived)
attr title "received packet lifetime, stats"
attr unit s
scalar RplNetwork100.host[98].app[0] packetSent:count 58
attr interpolationmode none
attr source packetSent
attr title "packets sent, count"
scalar RplNetwork100.host[98].app[0] packetSent:sum(packetBytes) 3248
attr interpolationmode none
attr source packetSent
attr title "packets sent, sum(packetBytes)"
scalar RplNetwork100.host[98].rpl rank 9
scalar RplNetwork100.host[98].rpl parentId 88
scalar RplNetwork100.host[98].rpl parentUnreachable:count 0
attr interpolationmode none
attr source parentUnreachable
attr title "Preferred parent unreachability detected, count"
scalar RplNetwork100.host[98].rpl rankUpdated:count 0
attr interpolationmode none
attr source rankUpdated
attr title "Rank is updated, count"
scalar RplNetwork100.host[98].rpl parentChanged:count 0
attr interpolationmode none
attr source parentChanged
attr title "Preferred parent has changed, count"
scalar RplNetwork100.host[98].rpl daoReceived:count 0
attr interpolationmode none
attr source daoReceived
attr title "DAO packets received, count"
scalar RplNetwork100.host[98].rpl dioReceived:count 12
attr interpolationmode none
attr source dioReceived
attr title "DIO packets received, count"
scalar RplNetwork100.host[99].energyStorage residualEnergyCapacity:last -7.1237225221352
attr interpolationmode linear
attr source residualEnergyCapacityChanged
attr title "Residual energy capacity, last"
scalar RplNetwork100.host[99].lo[0].lo rcvdPkFromHl:count 0
attr interpolationmode none
attr source packetReceivedFromUpper
attr title "packets received from higher layer, count"
scalar RplNetwork100.host[99].lo[0].lo rcvdPkFromHl:sum(packetBytes) 0
attr interpolationmode none
attr source packetReceivedFromUpper
attr title "packets received from higher layer, sum(packetBytes)"
scalar RplNetwork100.host[99].lo[0].lo passedUpPk:count 0
attr interpolationmode none
attr source packetSentToUpper
attr title "packets passed to higher layer, count"
scalar RplNetwork100.host[99].lo[0].lo passedUpPk:sum(packetBytes) 0
attr interpolationmode none
attr source packetSentToUpper
attr title "packets passed to higher layer, sum(packetBytes)"
scalar RplNetwork100.host[99].wlan[0].mac.queue packetPopped:count 76
attr interpolationmode none
attr title "packet popped, count"
scalar RplNetwork100.host[99].wlan[0].mac.queue packetPopped:sum(packetBytes) 8348
attr interpolationmode none
attr title "packet popped, sum(packetBytes)"
statistic RplNetwork100.host[99].wlan[0].mac.queue queueingTime:histogram
field count 76
field mean 0.0013153684210526
field stddev 0.00074419239164982
field min 0.000128
field max 0.002368
field sum 0.099968
field sqrsum 0.000173031424
attr interpolationmode none
attr source queueingTime(packetPopped)
attr title "queueing times, histogram"
attr unit s
bin	-inf	0
bin	0	0
bin	5e-05	0
bin	0.0001	6
bin	0.00015	0
bin	0.0002	0
bin	0.00025	0
bin	0.0003	0
bin	0.00035	0
bin	0.0004	11
bin	0.00045	0
bin	0.0005	0
bin	0.00055	0
bin	0.0006	0
bin	0.00065	0
bin	0.0007	0
bin	0.00075	13
bin	0.0008	0
bin	0.00085	0
bin	0.0009	0
bin	0.00095	0
bin	0.001	0
bin	0.00105	8
bin	0.0011	0
bin	0.00115	0
bin	0.0012	0
bin	0.00125	0
bin	0.0013	0
bin	0.00135	0
bin	0.0014	3
bin	0.00145	0
bin	0.0015	0
bin	0.00155	0
bin	0.0016	0
bin	0.00165	0
bin	0.0017	11
bin	0.00175	0
bin	0.0018	0
bin	0.00185	0
bin	0.0019	0
bin	0.00195	0
bin	0.002	14
bin	0.00205	0
bin	0.0021	0
bin	0.00215	0
bin	0.0022	0
bin	0.00225	0
bin	0.0023	0
bin	0.00235	10
bin	0.0024	0
bin	0.00245	0
bin	0.0025	0
bin	0.00255	0
bin	0.0026	0
bin	0.00265	0
bin	0.0027	0
bin	0.00275	0
bin	0.0028	0
bin	0.00285	0
bin	0.0029	0
bin	0.00295	0
scalar RplNetwork100.host[99].wlan[0].mac.queue queueLength:max 1
attr interpolationmode sample-hold
attr source "count(packetPushed) - count(packetPopped) - count(packetRemoved) - count(packetDropped)"
attr title "queue length, max"
scalar RplNetwork100.host[99].wlan[0].mac.queue queueLength:timeavg 2.8703183035066e-05
attr interpolationmode sample-hold
attr source "count(packetPushed) - count(packetPopped) - count(packetRemoved) - count(packetDropped)"
attr title "queue length, timeavg"
scalar RplNetwork100.host[99].wlan[0].mac.queue packetPushed:count 76
attr interpolationmode none
attr title "packet pushed, count"
scalar RplNetwork100.host[99].wlan[0].mac.queue packetPushed:sum(packetBytes) 8348
attr interpolationmode none
attr title "packet pushed, sum(packetBytes)"
scalar RplNetwork100.host[99].wlan[0].mac.queue packetDropQueueOverflow:count 0
attr interpolationmode none
attr source packetDropReasonIsQueueOverflow(packetDropped)
attr title "packet drops: queue overflow, count"
scalar RplNetwork100.host[99].wlan[0].mac.queue packetDropQueueOverflow:sum(packetBytes) 0
attr interpolationmode none
attr source packetDropReasonIsQueueOverflow(packetDropped)
attr title "packet drops: queue overflow, sum(packetBytes)"
scalar RplNetwork100.host[99].wlan[0].mac.queue packetRemoved:count 0
attr interpolationmode none
attr title "packets removed, count"
scalar RplNetwork100.host[99].wlan[0].mac.queue packetRemoved:sum(packetBytes) 0
attr interpolationmode none
attr title "packets removed, sum(packetBytes)"
scalar RplNetwork100.host[99].wlan[0].mac nbTxFrames 82
scalar RplNetwork100.host[99].wlan[0].mac nbRxFrames 43
scalar RplNetwork100.host[99].wlan[0].mac nbDroppedFrames 0
scalar RplNetwork100.host[99].wlan[0].mac nbMissedAcks 0
scalar RplNetwork100.host[99].wlan[0].mac nbRecvdAcks 60
scalar RplNetwork100.host[99].wlan[0].mac nbTxAcks 1
scalar RplNetwork100.host[99].wlan[0].mac nbDuplicates 0
scalar RplNetwork100.host[99].wlan[0].mac meanBackoff 0.0012019512195122
scalar RplNetwork100.host[99].wlan[0].mac nbBackoffs 82
scalar RplNetwork100.host[99].wlan[0].mac backoffDurations 0.09856
scalar RplNetwork100.host[99].wlan[0].mac packetDropNotAddressToUs:count 116
attr interpolationmode none
attr source packetDropReasonIsNotAddressedToUs(packetDropped)
attr title "packet drop: not addressed to us, count"
scalar RplNetwork100.host[99].wlan[0].mac packetDropNotAddressToUs:sum(packetBytes) 13108
attr interpolationmode none
attr source packetDropReasonIsNotAddressedToUs(packetDropped)
attr title "packet drop: not addressed to us, sum(packetBytes)"
scalar RplNetwork100.host[99].wlan[0].mac packetDropIncorrectlyReceived:count 0
attr interpolationmode none
attr source packetDropReasonIsIncorrectlyReceived(packetDropped)
attr title "packet drop: incorrectly received, count"
scalar RplNetwork100.host[99].wlan[0].mac packetDropIncorrectlyReceived:sum(packetBytes) 0
attr interpolationmode none
attr source packetDropReasonIsIncorrectlyReceived(packetDropped)
attr title "packet drop: incorrectly received, sum(packetBytes)"
scalar RplNetwork100.host[99].wlan[0].mac packetDropQueueOverflow:count 0
attr interpolationmode none
attr source packetDropReasonIsQueueOverflow(packetDropped)
attr title "packet drop: queue overflow, count"
scalar RplNetwork100.host[99].wlan[0].mac packetDropQueueOverflow:sum(packetBytes) 0
attr interpolationmode none
attr source packetDropReasonIsQueueOverflow(packetDropped)
attr title "packet drop: queue overflow, sum(packetBytes)"
scalar RplNetwork100.host[99].wlan[0].mac packetDropRetryLimitReached:count 0
attr interpolationmode none
attr source packetDropReasonIsRetryLimitReached(packetDropped)
attr title "packet drop: retry limit reached, count"
scalar RplNetwork100.host[99].wlan[0].mac packetDropRetryLimitReached:sum(packetBytes) 0
attr interpolationmode none
attr source packetDropReasonIsRetryLimitReached(packetDropped)
attr title "packet drop: retry limit reached, sum(packetBytes)"
scalar RplNetwork100.host[99].wlan[0].mac packetDropBackoffLimitReached:count 0
attr interpolationmode none
attr source packetDropReasonIsCongestion(packetDropped)
attr title "packet drop: backoff limit reached, count"
scalar RplNetwork100.host[99].wlan[0].mac packetDropBackoffLimitReached:sum(packetBytes) 0
attr interpolationmode none
attr source packetDropReasonIsCongestion(packetDropped)
attr title "packet drop: backoff limit reached, sum(packetBytes)"
scalar RplNetwork100.host[99].wlan[0].mac linkBroken:count 0
attr interpolationmode none
attr source linkBroken
attr title "link break, count"
scalar RplNetwork100.host[99].wlan[0].radio radioMode:count 152
attr interpolationmode sample-hold
attr source radioModeChanged
attr title "Radio mode, count"
scalar RplNetwork100.host[99].wlan[0].radio receptionState:count 828
attr interpolationmode sample-hold
attr source receptionStateChanged
attr title "Radio reception state, count"
scalar RplNetwork100.host[99].wlan[0].radio transmissionState:count 304
attr interpolationmode sample-hold
attr source transmissionStateChanged
attr title "Radio transmission state, count"
statistic RplNetwork100.host[99].wlan[0].radio minSnir:histogram
field count 207
field mean 697.2667979165
field stddev 0
field min 697.26679791649
field max 697.26679791649
field sum 144334.22716871
field sqrsum 100639464.40768
attr source minimumSnir(packetSentToUpper)
attr title "Min SNIR, histogram"
bin	-inf	0
bin	696.76	0
bin	696.78	0
bin	696.8	0
bin	696.82	0
bin	696.84	0
bin	696.86	0
bin	696.88	0
bin	696.9	0
bin	696.92	0
bin	696.94	0
bin	696.96	0
bin	696.98	0
bin	697	0
bin	697.02	0
bin	697.04	0
bin	697.06	0
bin	697.08	0
bin	697.1	0
bin	697.12	0
bin	697.14	0
bin	697.16	0
bin	697.18	0
bin	697.2	0
bin	697.22	0
bin	697.24	0
bin	697.26	207
bin	697.28	0
bin	697.3	0
bin	697.32	0
bin	697.34	0
bin	697.36	0
bin	697.38	0
bin	697.4	0
bin	697.42	0
bin	697.44	0
bin	697.46	0
bin	697.48	0
bin	697.5	0
bin	697.52	0
bin	697.54	0
bin	697.56	0
bin	697.58	0
bin	697.6	0
bin	697.62	0
bin	697.64	0
bin	697.66	0
bin	697.68	0
bin	697.7	0
bin	697.72	0
bin	697.74	0
bin	697.76	0
bin	697.78	0
statistic RplNetwork100.host[99].wlan[0].radio packetErrorRate:histogram
field count 207
field mean 0
field stddev 0
field min 0
field max 0
field sum 0
field sqrsum 0
attr source packetErrorRate(packetSentToUpper)
attr title "Packet error rate, histogram"
bin	-inf	0
bin	-0.5	0
bin	-0.48	0
bin	-0.46	0
bin	-0.44	0
bin	-0.42	0
bin	-0.4	0
bin	-0.38	0
bin	-0.36	0
bin	-0.34	0
bin	-0.32	0
bin	-0.3	0
bin	-0.28	0
bin	-0.26	0
bin	-0.24	0
bin	-0.22	0
bin	-0.2	0
bin	-0.18	0
bin	-0.16	0
bin	-0.14	0
bin	-0.12	0
bin	-0.1	0
bin	-0.08	0
bin	-0.06	0
bin	-0.04	0
bin	-0.02	0
bin	0	207
bin	0.02	0
bin	0.04	0
bin	0.06	0
bin	0.08	0
bin	0.1	0
bin	0.12	0
bin	0.14	0
bin	0.16	0
bin	0.18	0
bin	0.2	0
bin	0.22	0
bin	0.24	0
bin	0.26	0
bin	0.28	0
bin	0.3	0
bin	0.32	0
bin	0.34	0
bin	0.36	0
bin	0.38	0
bin	0.4	0
bin	0.42	0
bin	0.44	0
bin	0.46	0
bin	0.48	0
bin	0.5	0
statistic RplNetwork100.host[99].wlan[0].radio bitErrorRate:histogram
field count 207
field mean 0
field stddev 0
field min 0
field max 0
field sum 0
field sqrsum 0
attr source bitErrorRate(packetSentToUpper)
attr title "Bit error rate, histogram"
bin	-inf	0
bin	-0.5	0
bin	-0.48	0
bin	-0.46	0
bin	-0.44	0
bin	-0.42	0
bin	-0.4	0
bin	-0.38	0
bin	-0.36	0
bin	-0.34	0
bin	-0.32	0
bin	-0.3	0
bin	-0.28	0
bin	-0.26	0
bin	-0.24	0
bin	-0.22	0
bin	-0.2	0
bin	-0.18	0
bin	-0.16	0
bin	-0.14	0
bin	-0.12	0
bin	-0.1	0
bin	-0.08	0
bin	-0.06	0
bin	-0.04	0
bin	-0.02	0
bin	0	207
bin	0.02	0
bin	0.04	0
bin	0.06	0
bin	0.08	0
bin	0.1	0
bin	0.12	0
bin	0.14	0
bin	0.16	0
bin	0.18	0
bin	0.2	0
bin	0.22	0
bin	0.24	0
bin	0.26	0
bin	0.28	0
bin	0.3	0
bin	0.32	0
bin	0.34	0
bin	0.36	0
bin	0.38	0
bin	0.4	0
bin	0.42	0
bin	0.44	0
bin	0.46	0
bin	0.48	0
bin	0.5	0
statistic RplNetwork100.host[99].wlan[0].radio symbolErrorRate:histogram
field count 0
field mean -nan
field stddev -nan
field min -nan
field max -nan
field sum 0
field sqrsum 0
attr source symbolErrorRate(packetSentToUpper)
attr title "Symbol error rate, histogram"
bin	-inf	0
bin	0	0
bin	1	0
scalar RplNetwork100.host[99].ipv6.neighbourDiscovery startDad:count 0
attr title "DAD started, count"
scalar RplNetwork100.host[99].udp packetReceived:count 0
attr interpolationmode none
attr source packetReceived
attr title "packets received, count"
scalar RplNetwork100.host[99].udp packetReceived:sum(packetBytes) 0
attr interpolationmode none
attr source packetReceived
attr title "packets received, sum(packetBytes)"
scalar RplNetwork100.host[99].udp packetSent:count 59
attr interpolationmode none
attr source packetSent
attr title "packets sent, count"
scalar RplNetwork100.host[99].udp packetSent:sum(packetBytes) 3776
attr interpolationmode none
attr source packetSent
attr title "packets sent, sum(packetBytes)"
scalar RplNetwork100.host[99].udp passedUpPk:count 0
attr interpolationmode none
attr source packetSentToUpper
attr title "packets passed up, count"
scalar RplNetwork100.host[99].udp droppedPkWrongPort:count 0
attr interpolationmode none
attr source packetDropReasonIsNoPortFound(packetDropped)
attr title "packets dropped (wrong port), count"
scalar RplNetwork100.host[99].udp droppedPkBadChecksum:count 0
attr interpolationmode none
attr source packetDropReasonIsIncorrectlyReceived(packetDropped)
attr title "packets dropped (checksum error), count"
scalar RplNetwork100.host[99].app[0] "packets sent" 59
scalar RplNetwork100.host[99].app[0] "packets received" 0
scalar RplNetwork100.host[99].app[0] packetReceived:count 0
attr interpolationmode none
attr source packetReceived
attr title "packets received, count"
scalar RplNetwork100.host[99].app[0] packetReceived:sum(packetBytes) 0
attr interpolationmode none
attr source packetReceived
attr title "packets received, sum(packetBytes)"
statistic RplNetwork100.host[99].app[0] rcvdPkLifetime:stats
field count 0
field mean -nan
field stddev -nan
field min -nan
field max -nan
field sum 0
field sqrsum 0
attr interpolationmode none
attr source dataAge(packetReceived)
attr title "received packet lifetime, stats"
attr unit s
scalar RplNetwork100.host[99].app[0] packetSent:count 59
attr interpolationmode none
attr source packetSent
attr title "packets sent, count"
scalar RplNetwork100.host[99].app[0] packetSent:sum(packetBytes) 3304
attr interpolationmode none
attr source packetSent
attr title "packets sent, sum(packetBytes)"
scalar RplNetwork100.host[99].rpl rank 10
scalar RplNetwork100.host[99].rpl parentId 89
scalar RplNetwork100.host[99].rpl parentUnreachable:count 0
attr interpolationmode none
attr source parentUnreachable
attr title "Preferred parent unreachability detected, count"
scalar RplNetwork100.host[99].rpl rankUpdated:count 0
attr interpolationmode none
attr source rankUpdated
attr title "Rank is updated, count"
scalar RplNetwork100.host[99].rpl parentChanged:count 0
attr interpolationmode none
attr source parentChanged
attr title "Preferred parent has changed, count"
scalar RplNetwork100.host[99].rpl daoReceived:count 0
attr interpolationmode none
attr source daoReceived
attr title "DAO packets received, count"
scalar RplNetwork100.host[99].rpl dioReceived:count 10
attr interpolationmode none
attr source dioReceived
attr title "DIO packets received, count"

