file 17924618 1779467170                                        
version 2
run _MP2P_Normal_36-0-20260522-13:25:47-94531
attr configname _MP2P_Normal_36
attr datetime 20260522-13:25:47
attr experiment _MP2P_Normal_36
attr inifile omnetpp_RPL_MP2P_36.ini
attr iterationvars ""
attr iterationvarsf ""
attr measurement ""
attr network RplNetwork36
attr processid 94531
attr repetition 0
attr replication #0
attr resultdir results
attr runnumber 0
attr seedset 0
param **.host[*].numApps 1
param **.host[*].app[0].typename "\"UdpBasicApp\""
param **.host[*].app[0].destAddresses "\"sink[0]\""
param **.host[*].app[0].destPort 1000
param **.host[*].app[0].messageLength 56B
param **.host[*].app[0].sendInterval 55s
param **.host[*].app[0].startTime uniform(0s,90s)
param **.sink[*].numApps 1
param **.sink[*].app[0].typename "\"UdpSink\""
param **.sink[*].app[0].localPort 1000
param **.host[*].app[0].recordStats true
param **.sink[*].app[0].recordStats true
param **.host[*].energyStorage.typename "\"IdealEpEnergyStorage\""
param **.host[*].energyStorage.nominalCapacity 1000J
param **.host[*].energyStorage.initialCapacity 1000J
param **.host[*].wlan[*].radio.energyConsumer.typename "\"StateBasedEpEnergyConsumer\""
param **.numNodes 36
param **.hasIpv6 true
param **.hasIpv4 false
param **.mtu 1500B
param **.neighbourDiscovery.raEnabled false
param **.neighbourDiscovery.addRandomDelays true
param **.neighbourDiscovery.skipDad true
param **.radioMedium.typename "\"Ieee802154NarrowbandDimensionalRadioMedium\""
param **.radio.typename "\"Ieee802154NarrowbandDimensionalRadio\""
param **.radioMedium.backgroundNoise.power -110dBm
param **.radioMedium.attenuation.typename "\"LogNormalShadowing\""
param **.radioMedium.attenuation.pathLossExponent 3.5
param **.radioMedium.attenuation.sigma 6.0
param **.wlan[*].typename "\"Ieee802154NarrowbandInterface\""
param **.wlan[*].mac.typename "\"Ieee802154Mac\""
param **.wlan[0].radio.transmitter.bitrate 250kbps
param **.wlan[0].radio.receiver.sensitivity -85dBm
param **.wlan[0].radio.transmitter.power 1mW
param **.sink[*].rpl.isRoot true
param **.sink[*].rpl.storing true
param **.rpl.numDaoRetransmitAttempts 10
param **.rpl.daoEnabled true
param **.rpl.poisoning false
param **.rpl.useBackupAsPreferred false
param **.rpl.networkProtocolModule "\"^.ipv6.ipv6\""
param **.rpl.routingTableModule "\"^.ipv6.routingTable\""
param **.rpl.drawConnectors true
param **.numSinks 1
param **.sensor[*].mobility.typename "\"StationaryMobility\""
param **.sink[*].mobility.typename "\"StationaryMobility\""
param **.mobility.constraintAreaMinX 0m
param **.mobility.constraintAreaMinY 0m
param **.mobility.constraintAreaMaxX 500m
param **.mobility.constraintAreaMaxY 500m
param *.sink[*].mobility.initialZ 0m
param *.host[*].mobility.typename "\"StationaryMobility\""
param *.host[*].mobility.initFromDisplayString false
param *.host[*].mobility.initialZ 0m
param *.sink[0].mobility.initialX 140m
param *.sink[0].mobility.initialY 120m
param *.host[0].mobility.initialX 40m
param *.host[0].mobility.initialY 0m
param *.host[1].mobility.initialX 80m
param *.host[1].mobility.initialY 0m
param *.host[2].mobility.initialX 120m
param *.host[2].mobility.initialY 0m
param *.host[3].mobility.initialX 160m
param *.host[3].mobility.initialY 0m
param *.host[4].mobility.initialX 200m
param *.host[4].mobility.initialY 0m
param *.host[5].mobility.initialX 240m
param *.host[5].mobility.initialY 0m
param *.host[6].mobility.initialX 40m
param *.host[6].mobility.initialY 40m
param *.host[7].mobility.initialX 80m
param *.host[7].mobility.initialY 40m
param *.host[8].mobility.initialX 120m
param *.host[8].mobility.initialY 40m
param *.host[9].mobility.initialX 160m
param *.host[9].mobility.initialY 40m
param *.host[10].mobility.initialX 200m
param *.host[10].mobility.initialY 40m
param *.host[11].mobility.initialX 240m
param *.host[11].mobility.initialY 40m
param *.host[12].mobility.initialX 40m
param *.host[12].mobility.initialY 80m
param *.host[13].mobility.initialX 80m
param *.host[13].mobility.initialY 80m
param *.host[14].mobility.initialX 120m
param *.host[14].mobility.initialY 80m
param *.host[15].mobility.initialX 160m
param *.host[15].mobility.initialY 80m
param *.host[16].mobility.initialX 200m
param *.host[16].mobility.initialY 80m
param *.host[17].mobility.initialX 240m
param *.host[17].mobility.initialY 80m
param *.host[18].mobility.initialX 40m
param *.host[18].mobility.initialY 120m
param *.host[19].mobility.initialX 80m
param *.host[19].mobility.initialY 120m
param *.host[21].mobility.initialX 160m
param *.host[21].mobility.initialY 120m
param *.host[22].mobility.initialX 200m
param *.host[22].mobility.initialY 120m
param *.host[23].mobility.initialX 240m
param *.host[23].mobility.initialY 120m
param *.host[24].mobility.initialX 40m
param *.host[24].mobility.initialY 160m
param *.host[25].mobility.initialX 80m
param *.host[25].mobility.initialY 160m
param *.host[26].mobility.initialX 120m
param *.host[26].mobility.initialY 160m
param *.host[27].mobility.initialX 160m
param *.host[27].mobility.initialY 160m
param *.host[28].mobility.initialX 200m
param *.host[28].mobility.initialY 160m
param *.host[29].mobility.initialX 240m
param *.host[29].mobility.initialY 160m
param *.host[30].mobility.initialX 40m
param *.host[30].mobility.initialY 200m
param *.host[31].mobility.initialX 80m
param *.host[31].mobility.initialY 200m
param *.host[32].mobility.initialX 120m
param *.host[32].mobility.initialY 200m
param *.host[33].mobility.initialX 160m
param *.host[33].mobility.initialY 200m
param *.host[34].mobility.initialX 200m
param *.host[34].mobility.initialY 200m
param *.host[35].mobility.initialX 240m
param *.host[35].mobility.initialY 200m
param **.host[*].numApps 1
param **.host[*].app[0].typename "\"UdpBasicApp\""
param **.host[*].app[0].destAddresses "\"sink[0]\""
param **.host[*].app[0].destPort 1000
param **.host[*].app[0].messageLength 56B
param **.host[*].app[0].sendInterval 55s
param **.host[*].app[0].startTime uniform(0s,90s)
param **.host[*].app[0].stopTime 3550s
param **.sink[*].numApps 1
param **.sink[*].app[0].typename "\"UdpSink\""
param **.sink[*].app[0].localPort 1000
param **.host[*].energyStorage.typename "\"IdealEpEnergyStorage\""
param **.host[*].energyStorage.nominalCapacity 1000J
param **.host[*].energyStorage.initialCapacity 1000J
param **.host[*].wlan[*].radio.energyConsumer.typename "\"StateBasedEpEnergyConsumer\""
param **.Attack[*].energyStorage.typename "\"IdealEpEnergyStorage\""
param **.Attack[*].energyStorage.nominalCapacity 1000J
param **.Attack[*].energyStorage.initialCapacity 1000J
param **.Attack[*].wlan[*].radio.energyConsumer.typename "\"StateBasedEpEnergyConsumer\""
param *.visualizer.dataLinkVisualizer[*].displayLinks true
param *.visualizer.physicalLinkVisualizer[*].displayLinks true
param *.visualizer.mediumVisualizer.displayCommunicationRanges true
param *.visualizer.networkRouteVisualizer.displayRoutes true
param *.visualizer.*.numDataLinkVisualizers 4
param *.visualizer.*.dataLinkVisualizer[*].displayLinks true
param *.visualizer.*.dataLinkVisualizer[*].activityLevel "\"peer\""
param *.visualizer.*.dataLinkVisualizer[0].packetFilter "\"UDP*\""
param *.visualizer.*.dataLinkVisualizer[0].*Color "\"blue\""
param *.visualizer.*.dataLinkVisualizer[1].packetFilter "\"DIO* or DIS* or DAO*\""
param *.visualizer.*.dataLinkVisualizer[1].*Color "\"green\""
param *.visualizer.*.dataLinkVisualizer[2].packetFilter "\"RERR* or ICMP*\""
param *.visualizer.*.dataLinkVisualizer[2].*Color "\"red\""
param *.visualizer.*.dataLinkVisualizer[3].packetFilter "\"UDP*\""
param *.visualizer.*.dataLinkVisualizer[3].*Color "\"orange\""
param **.app[*].packetSent:count.record true
param **.app[*].packetReceived:count.record true
param **.host[*].app[0].recordStats true
param **.sink[*].app[0].recordStats true
param **.endToEndDelay:vector.record true
param **.endToEndDelay:stats.record true
param **.throughput:vector.record true
param **.throughput:stats.record true

vector 0 RplNetwork36.host[13].wlan[0].mac.queue packetPushed:vector(packetBytes) ETV
attr interpolationmode none
attr title "packet pushed, vector(packetBytes)"
vector 1 RplNetwork36.host[13].wlan[0].mac.queue queueLength:vector ETV
attr interpolationmode sample-hold
attr source "count(packetPushed) - count(packetPopped) - count(packetRemoved) - count(packetDropped)"
attr title "queue length, vector"
vector 2 RplNetwork36.host[13].wlan[0].radio radioMode:vector ETV
attr interpolationmode sample-hold
attr source radioModeChanged
attr title "Radio mode, vector"
vector 3 RplNetwork36.host[13].wlan[0].radio.energyConsumer powerConsumption:vector ETV
attr interpolationmode sample-hold
attr source powerConsumptionChanged
attr title "Power consumption, vector"
vector 4 RplNetwork36.host[13].energyStorage residualEnergyCapacity:vector ETV
attr interpolationmode linear
attr source residualEnergyCapacityChanged
attr title "Residual energy capacity, vector"
vector 5 RplNetwork36.host[13].energyStorage powerConsumption:vector ETV
attr interpolationmode sample-hold
attr source powerConsumptionChanged
attr title "Power consumption, vector"
vector 6 RplNetwork36.host[13].wlan[0].radio receptionState:vector ETV
attr interpolationmode sample-hold
attr source receptionStateChanged
attr title "Radio reception state, vector"
vector 7 RplNetwork36.host[13].wlan[0].radio transmissionState:vector ETV
attr interpolationmode sample-hold
attr source transmissionStateChanged
attr title "Radio transmission state, vector"
vector 8 RplNetwork36.host[13].wlan[0].mac.queue packetPopped:vector(packetBytes) ETV
attr interpolationmode none
attr title "packet popped, vector(packetBytes)"
vector 9 RplNetwork36.host[13].wlan[0].mac.queue queueingTime:vector ETV
attr interpolationmode none
attr source queueingTime(packetPopped)
attr title "queueing times, vector"
attr unit s
vector 10 RplNetwork36.host[7].wlan[0].radio receptionState:vector ETV
attr interpolationmode sample-hold
attr source receptionStateChanged
attr title "Radio reception state, vector"
vector 11 RplNetwork36.host[7].wlan[0].radio.energyConsumer powerConsumption:vector ETV
attr interpolationmode sample-hold
attr source powerConsumptionChanged
attr title "Power consumption, vector"
vector 12 RplNetwork36.host[7].energyStorage residualEnergyCapacity:vector ETV
attr interpolationmode linear
attr source residualEnergyCapacityChanged
attr title "Residual energy capacity, vector"
vector 13 RplNetwork36.host[7].energyStorage powerConsumption:vector ETV
attr interpolationmode sample-hold
attr source powerConsumptionChanged
attr title "Power consumption, vector"
vector 14 RplNetwork36.host[12].wlan[0].radio receptionState:vector ETV
attr interpolationmode sample-hold
attr source receptionStateChanged
attr title "Radio reception state, vector"
vector 15 RplNetwork36.host[12].wlan[0].radio.energyConsumer powerConsumption:vector ETV
attr interpolationmode sample-hold
attr source powerConsumptionChanged
attr title "Power consumption, vector"
vector 16 RplNetwork36.host[12].energyStorage residualEnergyCapacity:vector ETV
attr interpolationmode linear
attr source residualEnergyCapacityChanged
attr title "Residual energy capacity, vector"
vector 17 RplNetwork36.host[12].energyStorage powerConsumption:vector ETV
attr interpolationmode sample-hold
attr source powerConsumptionChanged
attr title "Power consumption, vector"
vector 18 RplNetwork36.host[14].wlan[0].radio receptionState:vector ETV
attr interpolationmode sample-hold
attr source receptionStateChanged
attr title "Radio reception state, vector"
vector 19 RplNetwork36.host[14].wlan[0].radio.energyConsumer powerConsumption:vector ETV
attr interpolationmode sample-hold
attr source powerConsumptionChanged
attr title "Power consumption, vector"
vector 20 RplNetwork36.host[14].energyStorage residualEnergyCapacity:vector ETV
attr interpolationmode linear
attr source residualEnergyCapacityChanged
attr title "Residual energy capacity, vector"
vector 21 RplNetwork36.host[14].energyStorage powerConsumption:vector ETV
attr interpolationmode sample-hold
attr source powerConsumptionChanged
attr title "Power consumption, vector"
vector 22 RplNetwork36.host[19].wlan[0].radio receptionState:vector ETV
attr interpolationmode sample-hold
attr source receptionStateChanged
attr title "Radio reception state, vector"
vector 23 RplNetwork36.host[19].wlan[0].radio.energyConsumer powerConsumption:vector ETV
attr interpolationmode sample-hold
attr source powerConsumptionChanged
attr title "Power consumption, vector"
vector 24 RplNetwork36.host[19].energyStorage residualEnergyCapacity:vector ETV
attr interpolationmode linear
attr source residualEnergyCapacityChanged
attr title "Residual energy capacity, vector"
vector 25 RplNetwork36.host[19].energyStorage powerConsumption:vector ETV
attr interpolationmode sample-hold
attr source powerConsumptionChanged
attr title "Power consumption, vector"
vector 26 RplNetwork36.sink[0].wlan[0].radio receptionState:vector ETV
attr interpolationmode sample-hold
attr source receptionStateChanged
attr title "Radio reception state, vector"
vector 27 RplNetwork36.host[6].wlan[0].radio receptionState:vector ETV
attr interpolationmode sample-hold
attr source receptionStateChanged
attr title "Radio reception state, vector"
vector 28 RplNetwork36.host[6].wlan[0].radio.energyConsumer powerConsumption:vector ETV
attr interpolationmode sample-hold
attr source powerConsumptionChanged
attr title "Power consumption, vector"
vector 29 RplNetwork36.host[6].energyStorage residualEnergyCapacity:vector ETV
attr interpolationmode linear
attr source residualEnergyCapacityChanged
attr title "Residual energy capacity, vector"
vector 30 RplNetwork36.host[6].energyStorage powerConsumption:vector ETV
attr interpolationmode sample-hold
attr source powerConsumptionChanged
attr title "Power consumption, vector"
vector 31 RplNetwork36.host[8].wlan[0].radio receptionState:vector ETV
attr interpolationmode sample-hold
attr source receptionStateChanged
attr title "Radio reception state, vector"
vector 32 RplNetwork36.host[8].wlan[0].radio.energyConsumer powerConsumption:vector ETV
attr interpolationmode sample-hold
attr source powerConsumptionChanged
attr title "Power consumption, vector"
vector 33 RplNetwork36.host[8].energyStorage residualEnergyCapacity:vector ETV
attr interpolationmode linear
attr source residualEnergyCapacityChanged
attr title "Residual energy capacity, vector"
vector 34 RplNetwork36.host[8].energyStorage powerConsumption:vector ETV
attr interpolationmode sample-hold
attr source powerConsumptionChanged
attr title "Power consumption, vector"
vector 35 RplNetwork36.host[18].wlan[0].radio receptionState:vector ETV
attr interpolationmode sample-hold
attr source receptionStateChanged
attr title "Radio reception state, vector"
vector 36 RplNetwork36.host[18].wlan[0].radio.energyConsumer powerConsumption:vector ETV
attr interpolationmode sample-hold
attr source powerConsumptionChanged
attr title "Power consumption, vector"
vector 37 RplNetwork36.host[18].energyStorage residualEnergyCapacity:vector ETV
attr interpolationmode linear
attr source residualEnergyCapacityChanged
attr title "Residual energy capacity, vector"
vector 38 RplNetwork36.host[18].energyStorage powerConsumption:vector ETV
attr interpolationmode sample-hold
attr source powerConsumptionChanged
attr title "Power consumption, vector"
vector 39 RplNetwork36.host[15].wlan[0].radio.energyConsumer powerConsumption:vector ETV
attr interpolationmode sample-hold
attr source powerConsumptionChanged
attr title "Power consumption, vector"
vector 40 RplNetwork36.host[15].energyStorage residualEnergyCapacity:vector ETV
attr interpolationmode linear
attr source residualEnergyCapacityChanged
attr title "Residual energy capacity, vector"
vector 41 RplNetwork36.host[15].energyStorage powerConsumption:vector ETV
attr interpolationmode sample-hold
attr source powerConsumptionChanged
attr title "Power consumption, vector"
vector 42 RplNetwork36.host[10].wlan[0].radio.energyConsumer powerConsumption:vector ETV
attr interpolationmode sample-hold
attr source powerConsumptionChanged
attr title "Power consumption, vector"
vector 43 RplNetwork36.host[10].energyStorage residualEnergyCapacity:vector ETV
attr interpolationmode linear
attr source residualEnergyCapacityChanged
attr title "Residual energy capacity, vector"
vector 44 RplNetwork36.host[10].energyStorage powerConsumption:vector ETV
attr interpolationmode sample-hold
attr source powerConsumptionChanged
attr title "Power consumption, vector"
vector 45 RplNetwork36.host[22].wlan[0].radio.energyConsumer powerConsumption:vector ETV
attr interpolationmode sample-hold
attr source powerConsumptionChanged
attr title "Power consumption, vector"
vector 46 RplNetwork36.host[22].energyStorage residualEnergyCapacity:vector ETV
attr interpolationmode linear
attr source residualEnergyCapacityChanged
attr title "Residual energy capacity, vector"
vector 47 RplNetwork36.host[22].energyStorage powerConsumption:vector ETV
attr interpolationmode sample-hold
attr source powerConsumptionChanged
attr title "Power consumption, vector"
vector 48 RplNetwork36.host[17].wlan[0].radio.energyConsumer powerConsumption:vector ETV
attr interpolationmode sample-hold
attr source powerConsumptionChanged
attr title "Power consumption, vector"
vector 49 RplNetwork36.host[17].energyStorage residualEnergyCapacity:vector ETV
attr interpolationmode linear
attr source residualEnergyCapacityChanged
attr title "Residual energy capacity, vector"
vector 50 RplNetwork36.host[17].energyStorage powerConsumption:vector ETV
attr interpolationmode sample-hold
attr source powerConsumptionChanged
attr title "Power consumption, vector"
vector 51 RplNetwork36.host[14].app[0] packetSent:vector(packetBytes) ETV
attr interpolationmode none
attr source packetSent
attr title "packets sent, vector(packetBytes)"
vector 52 RplNetwork36.host[14].udp packetSent:vector(packetBytes) ETV
attr interpolationmode none
attr source packetSent
attr title "packets sent, vector(packetBytes)"
vector 53 RplNetwork36.host[14].wlan[0].mac.queue packetPushed:vector(packetBytes) ETV
attr interpolationmode none
attr title "packet pushed, vector(packetBytes)"
vector 54 RplNetwork36.host[14].wlan[0].mac.queue queueLength:vector ETV
attr interpolationmode sample-hold
attr source "count(packetPushed) - count(packetPopped) - count(packetRemoved) - count(packetDropped)"
attr title "queue length, vector"
vector 55 RplNetwork36.host[14].wlan[0].radio radioMode:vector ETV
attr interpolationmode sample-hold
attr source radioModeChanged
attr title "Radio mode, vector"
vector 56 RplNetwork36.host[14].wlan[0].radio transmissionState:vector ETV
attr interpolationmode sample-hold
attr source transmissionStateChanged
attr title "Radio transmission state, vector"
vector 57 RplNetwork36.host[14].wlan[0].mac.queue packetPopped:vector(packetBytes) ETV
attr interpolationmode none
attr title "packet popped, vector(packetBytes)"
vector 58 RplNetwork36.host[14].wlan[0].mac.queue queueingTime:vector ETV
attr interpolationmode none
attr source queueingTime(packetPopped)
attr title "queueing times, vector"
attr unit s
vector 59 RplNetwork36.host[15].wlan[0].radio receptionState:vector ETV
attr interpolationmode sample-hold
attr source receptionStateChanged
attr title "Radio reception state, vector"
vector 60 RplNetwork36.host[9].wlan[0].radio receptionState:vector ETV
attr interpolationmode sample-hold
attr source receptionStateChanged
attr title "Radio reception state, vector"
vector 61 RplNetwork36.host[9].wlan[0].radio.energyConsumer powerConsumption:vector ETV
attr interpolationmode sample-hold
attr source powerConsumptionChanged
attr title "Power consumption, vector"
vector 62 RplNetwork36.host[9].energyStorage residualEnergyCapacity:vector ETV
attr interpolationmode linear
attr source residualEnergyCapacityChanged
attr title "Residual energy capacity, vector"
vector 63 RplNetwork36.host[9].energyStorage powerConsumption:vector ETV
attr interpolationmode sample-hold
attr source powerConsumptionChanged
attr title "Power consumption, vector"
vector 64 RplNetwork36.host[21].wlan[0].radio receptionState:vector ETV
attr interpolationmode sample-hold
attr source receptionStateChanged
attr title "Radio reception state, vector"
vector 65 RplNetwork36.host[21].wlan[0].radio.energyConsumer powerConsumption:vector ETV
attr interpolationmode sample-hold
attr source powerConsumptionChanged
attr title "Power consumption, vector"
vector 66 RplNetwork36.host[21].energyStorage residualEnergyCapacity:vector ETV
attr interpolationmode linear
attr source residualEnergyCapacityChanged
attr title "Residual energy capacity, vector"
vector 67 RplNetwork36.host[21].energyStorage powerConsumption:vector ETV
attr interpolationmode sample-hold
attr source powerConsumptionChanged
attr title "Power consumption, vector"
vector 68 RplNetwork36.sink[0].wlan[0].radio radioMode:vector ETV
attr interpolationmode sample-hold
attr source radioModeChanged
attr title "Radio mode, vector"
vector 69 RplNetwork36.sink[0].wlan[0].radio transmissionState:vector ETV
attr interpolationmode sample-hold
attr source transmissionStateChanged
attr title "Radio transmission state, vector"
vector 70 RplNetwork36.host[8].wlan[0].mac packetDropNotAddressToUs:vector(packetBytes) ETV
attr interpolationmode none
attr source packetDropReasonIsNotAddressedToUs(packetDropped)
attr title "packet drop: not addressed to us, vector(packetBytes)"
vector 71 RplNetwork36.host[13].wlan[0].mac packetDropNotAddressToUs:vector(packetBytes) ETV
attr interpolationmode none
attr source packetDropReasonIsNotAddressedToUs(packetDropped)
attr title "packet drop: not addressed to us, vector(packetBytes)"
vector 72 RplNetwork36.host[15].wlan[0].mac packetDropNotAddressToUs:vector(packetBytes) ETV
attr interpolationmode none
attr source packetDropReasonIsNotAddressedToUs(packetDropped)
attr title "packet drop: not addressed to us, vector(packetBytes)"
vector 73 RplNetwork36.sink[0].udp packetReceived:vector(packetBytes) ETV
attr interpolationmode none
attr source packetReceived
attr title "packets received, vector(packetBytes)"
vector 74 RplNetwork36.sink[0].udp passedUpPk:vector(count) ETV
attr interpolationmode none
attr source packetSentToUpper
attr title "packets passed up, vector(count)"
vector 75 RplNetwork36.sink[0].app[0] packetReceived:vector(packetBytes) ETV
attr interpolationmode none
attr source packetReceived
attr title "packets received, vector(packetBytes)"
vector 76 RplNetwork36.sink[0].app[0] throughput:vector ETV
attr source throughput(packetReceived)
attr title "throughput, vector"
attr unit bps
vector 77 RplNetwork36.sink[0].app[0] endToEndDelay:vector ETV
attr interpolationmode none
attr source dataAge(packetReceived)
attr title "end-to-end delay, vector"
attr unit s
vector 78 RplNetwork36.sink[0].app[0] rcvdPkSeqNo:vector ETV
attr interpolationmode none
attr source appPkSeqNo(packetReceived)
attr title "received packet sequence number, vector"
vector 79 RplNetwork36.host[26].wlan[0].radio receptionState:vector ETV
attr interpolationmode sample-hold
attr source receptionStateChanged
attr title "Radio reception state, vector"
vector 80 RplNetwork36.host[26].wlan[0].radio.energyConsumer powerConsumption:vector ETV
attr interpolationmode sample-hold
attr source powerConsumptionChanged
attr title "Power consumption, vector"
vector 81 RplNetwork36.host[26].energyStorage residualEnergyCapacity:vector ETV
attr interpolationmode linear
attr source residualEnergyCapacityChanged
attr title "Residual energy capacity, vector"
vector 82 RplNetwork36.host[26].energyStorage powerConsumption:vector ETV
attr interpolationmode sample-hold
attr source powerConsumptionChanged
attr title "Power consumption, vector"
vector 83 RplNetwork36.host[25].wlan[0].radio receptionState:vector ETV
attr interpolationmode sample-hold
attr source receptionStateChanged
attr title "Radio reception state, vector"
vector 84 RplNetwork36.host[25].wlan[0].radio.energyConsumer powerConsumption:vector ETV
attr interpolationmode sample-hold
attr source powerConsumptionChanged
attr title "Power consumption, vector"
vector 85 RplNetwork36.host[25].energyStorage residualEnergyCapacity:vector ETV
attr interpolationmode linear
attr source residualEnergyCapacityChanged
attr title "Residual energy capacity, vector"
vector 86 RplNetwork36.host[25].energyStorage powerConsumption:vector ETV
attr interpolationmode sample-hold
attr source powerConsumptionChanged
attr title "Power consumption, vector"
vector 87 RplNetwork36.host[27].wlan[0].radio receptionState:vector ETV
attr interpolationmode sample-hold
attr source receptionStateChanged
attr title "Radio reception state, vector"
vector 88 RplNetwork36.host[27].wlan[0].radio.energyConsumer powerConsumption:vector ETV
attr interpolationmode sample-hold
attr source powerConsumptionChanged
attr title "Power consumption, vector"
vector 89 RplNetwork36.host[27].energyStorage residualEnergyCapacity:vector ETV
attr interpolationmode linear
attr source residualEnergyCapacityChanged
attr title "Residual energy capacity, vector"
vector 90 RplNetwork36.host[27].energyStorage powerConsumption:vector ETV
attr interpolationmode sample-hold
attr source powerConsumptionChanged
attr title "Power consumption, vector"
vector 91 RplNetwork36.host[19].wlan[0].mac packetDropNotAddressToUs:vector(packetBytes) ETV
attr interpolationmode none
attr source packetDropReasonIsNotAddressedToUs(packetDropped)
attr title "packet drop: not addressed to us, vector(packetBytes)"
vector 92 RplNetwork36.host[21].wlan[0].mac packetDropNotAddressToUs:vector(packetBytes) ETV
attr interpolationmode none
attr source packetDropReasonIsNotAddressedToUs(packetDropped)
attr title "packet drop: not addressed to us, vector(packetBytes)"
vector 93 RplNetwork36.host[26].wlan[0].mac packetDropNotAddressToUs:vector(packetBytes) ETV
attr interpolationmode none
attr source packetDropReasonIsNotAddressedToUs(packetDropped)
attr title "packet drop: not addressed to us, vector(packetBytes)"
vector 94 RplNetwork36.host[22].wlan[0].mac.queue packetPushed:vector(packetBytes) ETV
attr interpolationmode none
attr title "packet pushed, vector(packetBytes)"
vector 95 RplNetwork36.host[22].wlan[0].mac.queue queueLength:vector ETV
attr interpolationmode sample-hold
attr source "count(packetPushed) - count(packetPopped) - count(packetRemoved) - count(packetDropped)"
attr title "queue length, vector"
vector 96 RplNetwork36.host[22].wlan[0].radio radioMode:vector ETV
attr interpolationmode sample-hold
attr source radioModeChanged
attr title "Radio mode, vector"
vector 97 RplNetwork36.host[22].wlan[0].radio receptionState:vector ETV
attr interpolationmode sample-hold
attr source receptionStateChanged
attr title "Radio reception state, vector"
vector 98 RplNetwork36.host[22].wlan[0].radio transmissionState:vector ETV
attr interpolationmode sample-hold
attr source transmissionStateChanged
attr title "Radio transmission state, vector"
vector 99 RplNetwork36.host[22].wlan[0].mac.queue packetPopped:vector(packetBytes) ETV
attr interpolationmode none
attr title "packet popped, vector(packetBytes)"
vector 100 RplNetwork36.host[22].wlan[0].mac.queue queueingTime:vector ETV
attr interpolationmode none
attr source queueingTime(packetPopped)
attr title "queueing times, vector"
attr unit s
vector 101 RplNetwork36.host[16].wlan[0].radio receptionState:vector ETV
attr interpolationmode sample-hold
attr source receptionStateChanged
attr title "Radio reception state, vector"
vector 102 RplNetwork36.host[16].wlan[0].radio.energyConsumer powerConsumption:vector ETV
attr interpolationmode sample-hold
attr source powerConsumptionChanged
attr title "Power consumption, vector"
vector 103 RplNetwork36.host[16].energyStorage residualEnergyCapacity:vector ETV
attr interpolationmode linear
attr source residualEnergyCapacityChanged
attr title "Residual energy capacity, vector"
vector 104 RplNetwork36.host[16].energyStorage powerConsumption:vector ETV
attr interpolationmode sample-hold
attr source powerConsumptionChanged
attr title "Power consumption, vector"
vector 105 RplNetwork36.host[23].wlan[0].radio receptionState:vector ETV
attr interpolationmode sample-hold
attr source receptionStateChanged
attr title "Radio reception state, vector"
vector 106 RplNetwork36.host[23].wlan[0].radio.energyConsumer powerConsumption:vector ETV
attr interpolationmode sample-hold
attr source powerConsumptionChanged
attr title "Power consumption, vector"
vector 107 RplNetwork36.host[23].energyStorage residualEnergyCapacity:vector ETV
attr interpolationmode linear
attr source residualEnergyCapacityChanged
attr title "Residual energy capacity, vector"
vector 108 RplNetwork36.host[23].energyStorage powerConsumption:vector ETV
attr interpolationmode sample-hold
attr source powerConsumptionChanged
attr title "Power consumption, vector"
vector 109 RplNetwork36.host[28].wlan[0].radio receptionState:vector ETV
attr interpolationmode sample-hold
attr source receptionStateChanged
attr title "Radio reception state, vector"
vector 110 RplNetwork36.host[28].wlan[0].radio.energyConsumer powerConsumption:vector ETV
attr interpolationmode sample-hold
attr source powerConsumptionChanged
attr title "Power consumption, vector"
vector 111 RplNetwork36.host[28].energyStorage residualEnergyCapacity:vector ETV
attr interpolationmode linear
attr source residualEnergyCapacityChanged
attr title "Residual energy capacity, vector"
vector 112 RplNetwork36.host[28].energyStorage powerConsumption:vector ETV
attr interpolationmode sample-hold
attr source powerConsumptionChanged
attr title "Power consumption, vector"
vector 113 RplNetwork36.host[17].wlan[0].radio receptionState:vector ETV
attr interpolationmode sample-hold
attr source receptionStateChanged
attr title "Radio reception state, vector"
vector 114 RplNetwork36.host[29].wlan[0].radio receptionState:vector ETV
attr interpolationmode sample-hold
attr source receptionStateChanged
attr title "Radio reception state, vector"
vector 115 RplNetwork36.host[29].wlan[0].radio.energyConsumer powerConsumption:vector ETV
attr interpolationmode sample-hold
attr source powerConsumptionChanged
attr title "Power consumption, vector"
vector 116 RplNetwork36.host[29].energyStorage residualEnergyCapacity:vector ETV
attr interpolationmode linear
attr source residualEnergyCapacityChanged
attr title "Residual energy capacity, vector"
vector 117 RplNetwork36.host[29].energyStorage powerConsumption:vector ETV
attr interpolationmode sample-hold
attr source powerConsumptionChanged
attr title "Power consumption, vector"
vector 118 RplNetwork36.host[13].app[0] packetSent:vector(packetBytes) ETV
attr interpolationmode none
attr source packetSent
attr title "packets sent, vector(packetBytes)"
vector 119 RplNetwork36.host[13].udp packetSent:vector(packetBytes) ETV
attr interpolationmode none
attr source packetSent
attr title "packets sent, vector(packetBytes)"
vector 120 RplNetwork36.host[7].wlan[0].mac packetDropNotAddressToUs:vector(packetBytes) ETV
attr interpolationmode none
attr source packetDropReasonIsNotAddressedToUs(packetDropped)
attr title "packet drop: not addressed to us, vector(packetBytes)"
vector 121 RplNetwork36.host[12].wlan[0].mac packetDropNotAddressToUs:vector(packetBytes) ETV
attr interpolationmode none
attr source packetDropReasonIsNotAddressedToUs(packetDropped)
attr title "packet drop: not addressed to us, vector(packetBytes)"
vector 122 RplNetwork36.host[14].wlan[0].mac packetDropNotAddressToUs:vector(packetBytes) ETV
attr interpolationmode none
attr source packetDropReasonIsNotAddressedToUs(packetDropped)
attr title "packet drop: not addressed to us, vector(packetBytes)"
vector 123 RplNetwork36.host[19].wlan[0].radio radioMode:vector ETV
attr interpolationmode sample-hold
attr source radioModeChanged
attr title "Radio mode, vector"
vector 124 RplNetwork36.host[19].wlan[0].radio transmissionState:vector ETV
attr interpolationmode sample-hold
attr source transmissionStateChanged
attr title "Radio transmission state, vector"
vector 125 RplNetwork36.host[24].wlan[0].radio receptionState:vector ETV
attr interpolationmode sample-hold
attr source receptionStateChanged
attr title "Radio reception state, vector"
vector 126 RplNetwork36.host[24].wlan[0].radio.energyConsumer powerConsumption:vector ETV
attr interpolationmode sample-hold
attr source powerConsumptionChanged
attr title "Power consumption, vector"
vector 127 RplNetwork36.host[24].energyStorage residualEnergyCapacity:vector ETV
attr interpolationmode linear
attr source residualEnergyCapacityChanged
attr title "Residual energy capacity, vector"
vector 128 RplNetwork36.host[24].energyStorage powerConsumption:vector ETV
attr interpolationmode sample-hold
attr source powerConsumptionChanged
attr title "Power consumption, vector"
vector 129 RplNetwork36.sink[0].wlan[0].mac packetDropNotAddressToUs:vector(packetBytes) ETV
attr interpolationmode none
attr source packetDropReasonIsNotAddressedToUs(packetDropped)
attr title "packet drop: not addressed to us, vector(packetBytes)"
vector 130 RplNetwork36.host[18].wlan[0].mac packetDropNotAddressToUs:vector(packetBytes) ETV
attr interpolationmode none
attr source packetDropReasonIsNotAddressedToUs(packetDropped)
attr title "packet drop: not addressed to us, vector(packetBytes)"
vector 131 RplNetwork36.host[25].wlan[0].mac packetDropNotAddressToUs:vector(packetBytes) ETV
attr interpolationmode none
attr source packetDropReasonIsNotAddressedToUs(packetDropped)
attr title "packet drop: not addressed to us, vector(packetBytes)"
vector 132 RplNetwork36.host[9].wlan[0].mac.queue packetPushed:vector(packetBytes) ETV
attr interpolationmode none
attr title "packet pushed, vector(packetBytes)"
vector 133 RplNetwork36.host[9].wlan[0].mac.queue queueLength:vector ETV
attr interpolationmode sample-hold
attr source "count(packetPushed) - count(packetPopped) - count(packetRemoved) - count(packetDropped)"
attr title "queue length, vector"
vector 134 RplNetwork36.host[9].wlan[0].radio radioMode:vector ETV
attr interpolationmode sample-hold
attr source radioModeChanged
attr title "Radio mode, vector"
vector 135 RplNetwork36.host[9].wlan[0].radio transmissionState:vector ETV
attr interpolationmode sample-hold
attr source transmissionStateChanged
attr title "Radio transmission state, vector"
vector 136 RplNetwork36.host[9].wlan[0].mac.queue packetPopped:vector(packetBytes) ETV
attr interpolationmode none
attr title "packet popped, vector(packetBytes)"
vector 137 RplNetwork36.host[9].wlan[0].mac.queue queueingTime:vector ETV
attr interpolationmode none
attr source queueingTime(packetPopped)
attr title "queueing times, vector"
attr unit s
vector 138 RplNetwork36.host[3].wlan[0].radio receptionState:vector ETV
attr interpolationmode sample-hold
attr source receptionStateChanged
attr title "Radio reception state, vector"
vector 139 RplNetwork36.host[3].wlan[0].radio.energyConsumer powerConsumption:vector ETV
attr interpolationmode sample-hold
attr source powerConsumptionChanged
attr title "Power consumption, vector"
vector 140 RplNetwork36.host[3].energyStorage residualEnergyCapacity:vector ETV
attr interpolationmode linear
attr source residualEnergyCapacityChanged
attr title "Residual energy capacity, vector"
vector 141 RplNetwork36.host[3].energyStorage powerConsumption:vector ETV
attr interpolationmode sample-hold
attr source powerConsumptionChanged
attr title "Power consumption, vector"
vector 142 RplNetwork36.host[10].wlan[0].radio receptionState:vector ETV
attr interpolationmode sample-hold
attr source receptionStateChanged
attr title "Radio reception state, vector"
vector 143 RplNetwork36.host[2].wlan[0].radio receptionState:vector ETV
attr interpolationmode sample-hold
attr source receptionStateChanged
attr title "Radio reception state, vector"
vector 144 RplNetwork36.host[2].wlan[0].radio.energyConsumer powerConsumption:vector ETV
attr interpolationmode sample-hold
attr source powerConsumptionChanged
attr title "Power consumption, vector"
vector 145 RplNetwork36.host[2].energyStorage residualEnergyCapacity:vector ETV
attr interpolationmode linear
attr source residualEnergyCapacityChanged
attr title "Residual energy capacity, vector"
vector 146 RplNetwork36.host[2].energyStorage powerConsumption:vector ETV
attr interpolationmode sample-hold
attr source powerConsumptionChanged
attr title "Power consumption, vector"
vector 147 RplNetwork36.host[4].wlan[0].radio receptionState:vector ETV
attr interpolationmode sample-hold
attr source receptionStateChanged
attr title "Radio reception state, vector"
vector 148 RplNetwork36.host[4].wlan[0].radio.energyConsumer powerConsumption:vector ETV
attr interpolationmode sample-hold
attr source powerConsumptionChanged
attr title "Power consumption, vector"
vector 149 RplNetwork36.host[4].energyStorage residualEnergyCapacity:vector ETV
attr interpolationmode linear
attr source residualEnergyCapacityChanged
attr title "Residual energy capacity, vector"
vector 150 RplNetwork36.host[4].energyStorage powerConsumption:vector ETV
attr interpolationmode sample-hold
attr source powerConsumptionChanged
attr title "Power consumption, vector"
vector 151 RplNetwork36.host[28].wlan[0].mac.queue packetPushed:vector(packetBytes) ETV
attr interpolationmode none
attr title "packet pushed, vector(packetBytes)"
vector 152 RplNetwork36.host[28].wlan[0].mac.queue queueLength:vector ETV
attr interpolationmode sample-hold
attr source "count(packetPushed) - count(packetPopped) - count(packetRemoved) - count(packetDropped)"
attr title "queue length, vector"
vector 153 RplNetwork36.host[28].wlan[0].radio radioMode:vector ETV
attr interpolationmode sample-hold
attr source radioModeChanged
attr title "Radio mode, vector"
vector 154 RplNetwork36.host[28].wlan[0].radio transmissionState:vector ETV
attr interpolationmode sample-hold
attr source transmissionStateChanged
attr title "Radio transmission state, vector"
vector 155 RplNetwork36.host[28].wlan[0].mac.queue packetPopped:vector(packetBytes) ETV
attr interpolationmode none
attr title "packet popped, vector(packetBytes)"
vector 156 RplNetwork36.host[28].wlan[0].mac.queue queueingTime:vector ETV
attr interpolationmode none
attr source queueingTime(packetPopped)
attr title "queueing times, vector"
attr unit s
vector 157 RplNetwork36.host[34].wlan[0].radio receptionState:vector ETV
attr interpolationmode sample-hold
attr source receptionStateChanged
attr title "Radio reception state, vector"
vector 158 RplNetwork36.host[34].wlan[0].radio.energyConsumer powerConsumption:vector ETV
attr interpolationmode sample-hold
attr source powerConsumptionChanged
attr title "Power consumption, vector"
vector 159 RplNetwork36.host[34].energyStorage residualEnergyCapacity:vector ETV
attr interpolationmode linear
attr source residualEnergyCapacityChanged
attr title "Residual energy capacity, vector"
vector 160 RplNetwork36.host[34].energyStorage powerConsumption:vector ETV
attr interpolationmode sample-hold
attr source powerConsumptionChanged
attr title "Power consumption, vector"
vector 161 RplNetwork36.host[33].wlan[0].radio receptionState:vector ETV
attr interpolationmode sample-hold
attr source receptionStateChanged
attr title "Radio reception state, vector"
vector 162 RplNetwork36.host[33].wlan[0].radio.energyConsumer powerConsumption:vector ETV
attr interpolationmode sample-hold
attr source powerConsumptionChanged
attr title "Power consumption, vector"
vector 163 RplNetwork36.host[33].energyStorage residualEnergyCapacity:vector ETV
attr interpolationmode linear
attr source residualEnergyCapacityChanged
attr title "Residual energy capacity, vector"
vector 164 RplNetwork36.host[33].energyStorage powerConsumption:vector ETV
attr interpolationmode sample-hold
attr source powerConsumptionChanged
attr title "Power consumption, vector"
vector 165 RplNetwork36.host[35].wlan[0].radio receptionState:vector ETV
attr interpolationmode sample-hold
attr source receptionStateChanged
attr title "Radio reception state, vector"
vector 166 RplNetwork36.host[35].wlan[0].radio.energyConsumer powerConsumption:vector ETV
attr interpolationmode sample-hold
attr source powerConsumptionChanged
attr title "Power consumption, vector"
vector 167 RplNetwork36.host[35].energyStorage residualEnergyCapacity:vector ETV
attr interpolationmode linear
attr source residualEnergyCapacityChanged
attr title "Residual energy capacity, vector"
vector 168 RplNetwork36.host[35].energyStorage powerConsumption:vector ETV
attr interpolationmode sample-hold
attr source powerConsumptionChanged
attr title "Power consumption, vector"
vector 169 RplNetwork36.host[26].app[0] packetSent:vector(packetBytes) ETV
attr interpolationmode none
attr source packetSent
attr title "packets sent, vector(packetBytes)"
vector 170 RplNetwork36.host[26].udp packetSent:vector(packetBytes) ETV
attr interpolationmode none
attr source packetSent
attr title "packets sent, vector(packetBytes)"
vector 171 RplNetwork36.host[26].wlan[0].mac.queue packetPushed:vector(packetBytes) ETV
attr interpolationmode none
attr title "packet pushed, vector(packetBytes)"
vector 172 RplNetwork36.host[26].wlan[0].mac.queue queueLength:vector ETV
attr interpolationmode sample-hold
attr source "count(packetPushed) - count(packetPopped) - count(packetRemoved) - count(packetDropped)"
attr title "queue length, vector"
vector 173 RplNetwork36.host[26].wlan[0].radio radioMode:vector ETV
attr interpolationmode sample-hold
attr source radioModeChanged
attr title "Radio mode, vector"
vector 174 RplNetwork36.host[26].wlan[0].radio transmissionState:vector ETV
attr interpolationmode sample-hold
attr source transmissionStateChanged
attr title "Radio transmission state, vector"
vector 175 RplNetwork36.host[26].wlan[0].mac.queue packetPopped:vector(packetBytes) ETV
attr interpolationmode none
attr title "packet popped, vector(packetBytes)"
vector 176 RplNetwork36.host[26].wlan[0].mac.queue queueingTime:vector ETV
attr interpolationmode none
attr source queueingTime(packetPopped)
attr title "queueing times, vector"
attr unit s
vector 177 RplNetwork36.host[32].wlan[0].radio receptionState:vector ETV
attr interpolationmode sample-hold
attr source receptionStateChanged
attr title "Radio reception state, vector"
vector 178 RplNetwork36.host[32].wlan[0].radio.energyConsumer powerConsumption:vector ETV
attr interpolationmode sample-hold
attr source powerConsumptionChanged
attr title "Power consumption, vector"
vector 179 RplNetwork36.host[32].energyStorage residualEnergyCapacity:vector ETV
attr interpolationmode linear
attr source residualEnergyCapacityChanged
attr title "Residual energy capacity, vector"
vector 180 RplNetwork36.host[32].energyStorage powerConsumption:vector ETV
attr interpolationmode sample-hold
attr source powerConsumptionChanged
attr title "Power consumption, vector"
vector 181 RplNetwork36.host[31].wlan[0].radio receptionState:vector ETV
attr interpolationmode sample-hold
attr source receptionStateChanged
attr title "Radio reception state, vector"
vector 182 RplNetwork36.host[31].wlan[0].radio.energyConsumer powerConsumption:vector ETV
attr interpolationmode sample-hold
attr source powerConsumptionChanged
attr title "Power consumption, vector"
vector 183 RplNetwork36.host[31].energyStorage residualEnergyCapacity:vector ETV
attr interpolationmode linear
attr source residualEnergyCapacityChanged
attr title "Residual energy capacity, vector"
vector 184 RplNetwork36.host[31].energyStorage powerConsumption:vector ETV
attr interpolationmode sample-hold
attr source powerConsumptionChanged
attr title "Power consumption, vector"
vector 185 RplNetwork36.host[27].wlan[0].mac packetDropNotAddressToUs:vector(packetBytes) ETV
attr interpolationmode none
attr source packetDropReasonIsNotAddressedToUs(packetDropped)
attr title "packet drop: not addressed to us, vector(packetBytes)"
vector 186 RplNetwork36.host[32].wlan[0].mac packetDropNotAddressToUs:vector(packetBytes) ETV
attr interpolationmode none
attr source packetDropReasonIsNotAddressedToUs(packetDropped)
attr title "packet drop: not addressed to us, vector(packetBytes)"
vector 187 RplNetwork36.host[27].wlan[0].mac.queue packetPushed:vector(packetBytes) ETV
attr interpolationmode none
attr title "packet pushed, vector(packetBytes)"
vector 188 RplNetwork36.host[27].wlan[0].mac.queue queueLength:vector ETV
attr interpolationmode sample-hold
attr source "count(packetPushed) - count(packetPopped) - count(packetRemoved) - count(packetDropped)"
attr title "queue length, vector"
vector 189 RplNetwork36.host[27].wlan[0].radio radioMode:vector ETV
attr interpolationmode sample-hold
attr source radioModeChanged
attr title "Radio mode, vector"
vector 190 RplNetwork36.host[27].wlan[0].radio transmissionState:vector ETV
attr interpolationmode sample-hold
attr source transmissionStateChanged
attr title "Radio transmission state, vector"
vector 191 RplNetwork36.host[27].wlan[0].mac.queue packetPopped:vector(packetBytes) ETV
attr interpolationmode none
attr title "packet popped, vector(packetBytes)"
vector 192 RplNetwork36.host[27].wlan[0].mac.queue queueingTime:vector ETV
attr interpolationmode none
attr source queueingTime(packetPopped)
attr title "queueing times, vector"
attr unit s
vector 193 RplNetwork36.host[8].wlan[0].mac.queue packetPushed:vector(packetBytes) ETV
attr interpolationmode none
attr title "packet pushed, vector(packetBytes)"
vector 194 RplNetwork36.host[8].wlan[0].mac.queue queueLength:vector ETV
attr interpolationmode sample-hold
attr source "count(packetPushed) - count(packetPopped) - count(packetRemoved) - count(packetDropped)"
attr title "queue length, vector"
vector 195 RplNetwork36.host[8].wlan[0].radio radioMode:vector ETV
attr interpolationmode sample-hold
attr source radioModeChanged
attr title "Radio mode, vector"
vector 196 RplNetwork36.host[8].wlan[0].radio transmissionState:vector ETV
attr interpolationmode sample-hold
attr source transmissionStateChanged
attr title "Radio transmission state, vector"
vector 197 RplNetwork36.host[8].wlan[0].mac.queue packetPopped:vector(packetBytes) ETV
attr interpolationmode none
attr title "packet popped, vector(packetBytes)"
vector 198 RplNetwork36.host[8].wlan[0].mac.queue queueingTime:vector ETV
attr interpolationmode none
attr source queueingTime(packetPopped)
attr title "queueing times, vector"
attr unit s
vector 199 RplNetwork36.host[1].wlan[0].radio receptionState:vector ETV
attr interpolationmode sample-hold
attr source receptionStateChanged
attr title "Radio reception state, vector"
vector 200 RplNetwork36.host[1].wlan[0].radio.energyConsumer powerConsumption:vector ETV
attr interpolationmode sample-hold
attr source powerConsumptionChanged
attr title "Power consumption, vector"
vector 201 RplNetwork36.host[1].energyStorage residualEnergyCapacity:vector ETV
attr interpolationmode linear
attr source residualEnergyCapacityChanged
attr title "Residual energy capacity, vector"
vector 202 RplNetwork36.host[1].energyStorage powerConsumption:vector ETV
attr interpolationmode sample-hold
attr source powerConsumptionChanged
attr title "Power consumption, vector"
vector 203 RplNetwork36.host[29].app[0] packetSent:vector(packetBytes) ETV
attr interpolationmode none
attr source packetSent
attr title "packets sent, vector(packetBytes)"
vector 204 RplNetwork36.host[29].udp packetSent:vector(packetBytes) ETV
attr interpolationmode none
attr source packetSent
attr title "packets sent, vector(packetBytes)"
vector 205 RplNetwork36.host[29].wlan[0].mac.queue packetPushed:vector(packetBytes) ETV
attr interpolationmode none
attr title "packet pushed, vector(packetBytes)"
vector 206 RplNetwork36.host[29].wlan[0].mac.queue queueLength:vector ETV
attr interpolationmode sample-hold
attr source "count(packetPushed) - count(packetPopped) - count(packetRemoved) - count(packetDropped)"
attr title "queue length, vector"
vector 207 RplNetwork36.host[29].wlan[0].radio radioMode:vector ETV
attr interpolationmode sample-hold
attr source radioModeChanged
attr title "Radio mode, vector"
vector 208 RplNetwork36.host[29].wlan[0].radio transmissionState:vector ETV
attr interpolationmode sample-hold
attr source transmissionStateChanged
attr title "Radio transmission state, vector"
vector 209 RplNetwork36.host[29].wlan[0].mac.queue packetPopped:vector(packetBytes) ETV
attr interpolationmode none
attr title "packet popped, vector(packetBytes)"
vector 210 RplNetwork36.host[29].wlan[0].mac.queue queueingTime:vector ETV
attr interpolationmode none
attr source queueingTime(packetPopped)
attr title "queueing times, vector"
attr unit s
vector 211 RplNetwork36.host[23].wlan[0].radio radioMode:vector ETV
attr interpolationmode sample-hold
attr source radioModeChanged
attr title "Radio mode, vector"
vector 212 RplNetwork36.host[23].wlan[0].radio transmissionState:vector ETV
attr interpolationmode sample-hold
attr source transmissionStateChanged
attr title "Radio transmission state, vector"
vector 213 RplNetwork36.host[28].wlan[0].mac packetDropNotAddressToUs:vector(packetBytes) ETV
attr interpolationmode none
attr source packetDropReasonIsNotAddressedToUs(packetDropped)
attr title "packet drop: not addressed to us, vector(packetBytes)"
vector 214 RplNetwork36.host[35].wlan[0].mac packetDropNotAddressToUs:vector(packetBytes) ETV
attr interpolationmode none
attr source packetDropReasonIsNotAddressedToUs(packetDropped)
attr title "packet drop: not addressed to us, vector(packetBytes)"
vector 215 RplNetwork36.host[17].wlan[0].mac packetDropNotAddressToUs:vector(packetBytes) ETV
attr interpolationmode none
attr source packetDropReasonIsNotAddressedToUs(packetDropped)
attr title "packet drop: not addressed to us, vector(packetBytes)"
vector 216 RplNetwork36.host[22].wlan[0].mac packetDropNotAddressToUs:vector(packetBytes) ETV
attr interpolationmode none
attr source packetDropReasonIsNotAddressedToUs(packetDropped)
attr title "packet drop: not addressed to us, vector(packetBytes)"
vector 217 RplNetwork36.host[15].wlan[0].mac.queue packetPushed:vector(packetBytes) ETV
attr interpolationmode none
attr title "packet pushed, vector(packetBytes)"
vector 218 RplNetwork36.host[15].wlan[0].mac.queue queueLength:vector ETV
attr interpolationmode sample-hold
attr source "count(packetPushed) - count(packetPopped) - count(packetRemoved) - count(packetDropped)"
attr title "queue length, vector"
vector 219 RplNetwork36.host[15].wlan[0].radio radioMode:vector ETV
attr interpolationmode sample-hold
attr source radioModeChanged
attr title "Radio mode, vector"
vector 220 RplNetwork36.host[15].wlan[0].radio transmissionState:vector ETV
attr interpolationmode sample-hold
attr source transmissionStateChanged
attr title "Radio transmission state, vector"
vector 221 RplNetwork36.host[15].wlan[0].mac.queue packetPopped:vector(packetBytes) ETV
attr interpolationmode none
attr title "packet popped, vector(packetBytes)"
vector 222 RplNetwork36.host[15].wlan[0].mac.queue queueingTime:vector ETV
attr interpolationmode none
attr source queueingTime(packetPopped)
attr title "queueing times, vector"
attr unit s
vector 223 RplNetwork36.host[1].wlan[0].mac.queue packetPushed:vector(packetBytes) ETV
attr interpolationmode none
attr title "packet pushed, vector(packetBytes)"
vector 224 RplNetwork36.host[1].wlan[0].mac.queue queueLength:vector ETV
attr interpolationmode sample-hold
attr source "count(packetPushed) - count(packetPopped) - count(packetRemoved) - count(packetDropped)"
attr title "queue length, vector"
vector 225 RplNetwork36.host[1].wlan[0].radio radioMode:vector ETV
attr interpolationmode sample-hold
attr source radioModeChanged
attr title "Radio mode, vector"
vector 226 RplNetwork36.host[1].wlan[0].radio transmissionState:vector ETV
attr interpolationmode sample-hold
attr source transmissionStateChanged
attr title "Radio transmission state, vector"
vector 227 RplNetwork36.host[1].wlan[0].mac.queue packetPopped:vector(packetBytes) ETV
attr interpolationmode none
attr title "packet popped, vector(packetBytes)"
vector 228 RplNetwork36.host[1].wlan[0].mac.queue queueingTime:vector ETV
attr interpolationmode none
attr source queueingTime(packetPopped)
attr title "queueing times, vector"
attr unit s
vector 229 RplNetwork36.host[0].wlan[0].radio receptionState:vector ETV
attr interpolationmode sample-hold
attr source receptionStateChanged
attr title "Radio reception state, vector"
vector 230 RplNetwork36.host[0].wlan[0].radio.energyConsumer powerConsumption:vector ETV
attr interpolationmode sample-hold
attr source powerConsumptionChanged
attr title "Power consumption, vector"
vector 231 RplNetwork36.host[0].energyStorage residualEnergyCapacity:vector ETV
attr interpolationmode linear
attr source residualEnergyCapacityChanged
attr title "Residual energy capacity, vector"
vector 232 RplNetwork36.host[0].energyStorage powerConsumption:vector ETV
attr interpolationmode sample-hold
attr source powerConsumptionChanged
attr title "Power consumption, vector"
vector 233 RplNetwork36.host[35].app[0] packetSent:vector(packetBytes) ETV
attr interpolationmode none
attr source packetSent
attr title "packets sent, vector(packetBytes)"
vector 234 RplNetwork36.host[35].udp packetSent:vector(packetBytes) ETV
attr interpolationmode none
attr source packetSent
attr title "packets sent, vector(packetBytes)"
vector 235 RplNetwork36.host[35].wlan[0].mac.queue packetPushed:vector(packetBytes) ETV
attr interpolationmode none
attr title "packet pushed, vector(packetBytes)"
vector 236 RplNetwork36.host[35].wlan[0].mac.queue queueLength:vector ETV
attr interpolationmode sample-hold
attr source "count(packetPushed) - count(packetPopped) - count(packetRemoved) - count(packetDropped)"
attr title "queue length, vector"
vector 237 RplNetwork36.host[35].wlan[0].radio radioMode:vector ETV
attr interpolationmode sample-hold
attr source radioModeChanged
attr title "Radio mode, vector"
vector 238 RplNetwork36.host[35].wlan[0].radio transmissionState:vector ETV
attr interpolationmode sample-hold
attr source transmissionStateChanged
attr title "Radio transmission state, vector"
vector 239 RplNetwork36.host[35].wlan[0].mac.queue packetPopped:vector(packetBytes) ETV
attr interpolationmode none
attr title "packet popped, vector(packetBytes)"
vector 240 RplNetwork36.host[35].wlan[0].mac.queue queueingTime:vector ETV
attr interpolationmode none
attr source queueingTime(packetPopped)
attr title "queueing times, vector"
attr unit s
vector 241 RplNetwork36.host[29].wlan[0].mac packetDropNotAddressToUs:vector(packetBytes) ETV
attr interpolationmode none
attr source packetDropReasonIsNotAddressedToUs(packetDropped)
attr title "packet drop: not addressed to us, vector(packetBytes)"
vector 242 RplNetwork36.host[34].wlan[0].radio radioMode:vector ETV
attr interpolationmode sample-hold
attr source radioModeChanged
attr title "Radio mode, vector"
vector 243 RplNetwork36.host[34].wlan[0].radio transmissionState:vector ETV
attr interpolationmode sample-hold
attr source transmissionStateChanged
attr title "Radio transmission state, vector"
vector 244 RplNetwork36.host[33].wlan[0].mac packetDropNotAddressToUs:vector(packetBytes) ETV
attr interpolationmode none
attr source packetDropReasonIsNotAddressedToUs(packetDropped)
attr title "packet drop: not addressed to us, vector(packetBytes)"
vector 245 RplNetwork36.host[17].wlan[0].mac.queue packetPushed:vector(packetBytes) ETV
attr interpolationmode none
attr title "packet pushed, vector(packetBytes)"
vector 246 RplNetwork36.host[17].wlan[0].mac.queue queueLength:vector ETV
attr interpolationmode sample-hold
attr source "count(packetPushed) - count(packetPopped) - count(packetRemoved) - count(packetDropped)"
attr title "queue length, vector"
vector 247 RplNetwork36.host[17].wlan[0].radio radioMode:vector ETV
attr interpolationmode sample-hold
attr source radioModeChanged
attr title "Radio mode, vector"
vector 248 RplNetwork36.host[17].wlan[0].radio transmissionState:vector ETV
attr interpolationmode sample-hold
attr source transmissionStateChanged
attr title "Radio transmission state, vector"
vector 249 RplNetwork36.host[17].wlan[0].mac.queue packetPopped:vector(packetBytes) ETV
attr interpolationmode none
attr title "packet popped, vector(packetBytes)"
vector 250 RplNetwork36.host[17].wlan[0].mac.queue queueingTime:vector ETV
attr interpolationmode none
attr source queueingTime(packetPopped)
attr title "queueing times, vector"
attr unit s
vector 251 RplNetwork36.host[11].wlan[0].radio receptionState:vector ETV
attr interpolationmode sample-hold
attr source receptionStateChanged
attr title "Radio reception state, vector"
vector 252 RplNetwork36.host[11].wlan[0].radio.energyConsumer powerConsumption:vector ETV
attr interpolationmode sample-hold
attr source powerConsumptionChanged
attr title "Power consumption, vector"
vector 253 RplNetwork36.host[11].energyStorage residualEnergyCapacity:vector ETV
attr interpolationmode linear
attr source residualEnergyCapacityChanged
attr title "Residual energy capacity, vector"
vector 254 RplNetwork36.host[11].energyStorage powerConsumption:vector ETV
attr interpolationmode sample-hold
attr source powerConsumptionChanged
attr title "Power consumption, vector"
vector 255 RplNetwork36.host[2].wlan[0].mac.queue packetPushed:vector(packetBytes) ETV
attr interpolationmode none
attr title "packet pushed, vector(packetBytes)"
vector 256 RplNetwork36.host[2].wlan[0].mac.queue queueLength:vector ETV
attr interpolationmode sample-hold
attr source "count(packetPushed) - count(packetPopped) - count(packetRemoved) - count(packetDropped)"
attr title "queue length, vector"
vector 257 RplNetwork36.host[2].wlan[0].radio radioMode:vector ETV
attr interpolationmode sample-hold
attr source radioModeChanged
attr title "Radio mode, vector"
vector 258 RplNetwork36.host[2].wlan[0].radio transmissionState:vector ETV
attr interpolationmode sample-hold
attr source transmissionStateChanged
attr title "Radio transmission state, vector"
vector 259 RplNetwork36.host[2].wlan[0].mac.queue packetPopped:vector(packetBytes) ETV
attr interpolationmode none
attr title "packet popped, vector(packetBytes)"
vector 260 RplNetwork36.host[2].wlan[0].mac.queue queueingTime:vector ETV
attr interpolationmode none
attr source queueingTime(packetPopped)
attr title "queueing times, vector"
attr unit s
vector 261 RplNetwork36.host[16].app[0] packetSent:vector(packetBytes) ETV
attr interpolationmode none
attr source packetSent
attr title "packets sent, vector(packetBytes)"
vector 262 RplNetwork36.host[16].udp packetSent:vector(packetBytes) ETV
attr interpolationmode none
attr source packetSent
attr title "packets sent, vector(packetBytes)"
vector 263 RplNetwork36.host[16].wlan[0].mac.queue packetPushed:vector(packetBytes) ETV
attr interpolationmode none
attr title "packet pushed, vector(packetBytes)"
vector 264 RplNetwork36.host[16].wlan[0].mac.queue queueLength:vector ETV
attr interpolationmode sample-hold
attr source "count(packetPushed) - count(packetPopped) - count(packetRemoved) - count(packetDropped)"
attr title "queue length, vector"
vector 265 RplNetwork36.host[16].wlan[0].radio radioMode:vector ETV
attr interpolationmode sample-hold
attr source radioModeChanged
attr title "Radio mode, vector"
vector 266 RplNetwork36.host[16].wlan[0].radio transmissionState:vector ETV
attr interpolationmode sample-hold
attr source transmissionStateChanged
attr title "Radio transmission state, vector"
vector 267 RplNetwork36.host[16].wlan[0].mac.queue packetPopped:vector(packetBytes) ETV
attr interpolationmode none
attr title "packet popped, vector(packetBytes)"
vector 268 RplNetwork36.host[16].wlan[0].mac.queue queueingTime:vector ETV
attr interpolationmode none
attr source queueingTime(packetPopped)
attr title "queueing times, vector"
attr unit s
vector 269 RplNetwork36.host[10].wlan[0].mac packetDropNotAddressToUs:vector(packetBytes) ETV
attr interpolationmode none
attr source packetDropReasonIsNotAddressedToUs(packetDropped)
attr title "packet drop: not addressed to us, vector(packetBytes)"
vector 270 RplNetwork36.host[23].wlan[0].mac packetDropNotAddressToUs:vector(packetBytes) ETV
attr interpolationmode none
attr source packetDropReasonIsNotAddressedToUs(packetDropped)
attr title "packet drop: not addressed to us, vector(packetBytes)"
vector 271 RplNetwork36.host[24].wlan[0].mac.queue packetPushed:vector(packetBytes) ETV
attr interpolationmode none
attr title "packet pushed, vector(packetBytes)"
vector 272 RplNetwork36.host[24].wlan[0].mac.queue queueLength:vector ETV
attr interpolationmode sample-hold
attr source "count(packetPushed) - count(packetPopped) - count(packetRemoved) - count(packetDropped)"
attr title "queue length, vector"
vector 273 RplNetwork36.host[24].wlan[0].radio radioMode:vector ETV
attr interpolationmode sample-hold
attr source radioModeChanged
attr title "Radio mode, vector"
vector 274 RplNetwork36.host[24].wlan[0].radio transmissionState:vector ETV
attr interpolationmode sample-hold
attr source transmissionStateChanged
attr title "Radio transmission state, vector"
vector 275 RplNetwork36.host[24].wlan[0].mac.queue packetPopped:vector(packetBytes) ETV
attr interpolationmode none
attr title "packet popped, vector(packetBytes)"
vector 276 RplNetwork36.host[24].wlan[0].mac.queue queueingTime:vector ETV
attr interpolationmode none
attr source queueingTime(packetPopped)
attr title "queueing times, vector"
attr unit s
vector 277 RplNetwork36.host[30].wlan[0].radio receptionState:vector ETV
attr interpolationmode sample-hold
attr source receptionStateChanged
attr title "Radio reception state, vector"
vector 278 RplNetwork36.host[30].wlan[0].radio.energyConsumer powerConsumption:vector ETV
attr interpolationmode sample-hold
attr source powerConsumptionChanged
attr title "Power consumption, vector"
vector 279 RplNetwork36.host[30].energyStorage residualEnergyCapacity:vector ETV
attr interpolationmode linear
attr source residualEnergyCapacityChanged
attr title "Residual energy capacity, vector"
vector 280 RplNetwork36.host[30].energyStorage powerConsumption:vector ETV
attr interpolationmode sample-hold
attr source powerConsumptionChanged
attr title "Power consumption, vector"
vector 281 RplNetwork36.host[33].wlan[0].mac.queue packetPushed:vector(packetBytes) ETV
attr interpolationmode none
attr title "packet pushed, vector(packetBytes)"
vector 282 RplNetwork36.host[33].wlan[0].mac.queue queueLength:vector ETV
attr interpolationmode sample-hold
attr source "count(packetPushed) - count(packetPopped) - count(packetRemoved) - count(packetDropped)"
attr title "queue length, vector"
vector 283 RplNetwork36.host[33].wlan[0].radio radioMode:vector ETV
attr interpolationmode sample-hold
attr source radioModeChanged
attr title "Radio mode, vector"
vector 284 RplNetwork36.host[33].wlan[0].radio transmissionState:vector ETV
attr interpolationmode sample-hold
attr source transmissionStateChanged
attr title "Radio transmission state, vector"
vector 285 RplNetwork36.host[33].wlan[0].mac.queue packetPopped:vector(packetBytes) ETV
attr interpolationmode none
attr title "packet popped, vector(packetBytes)"
vector 286 RplNetwork36.host[33].wlan[0].mac.queue queueingTime:vector ETV
attr interpolationmode none
attr source queueingTime(packetPopped)
attr title "queueing times, vector"
attr unit s
vector 287 RplNetwork36.host[33].app[0] packetSent:vector(packetBytes) ETV
attr interpolationmode none
attr source packetSent
attr title "packets sent, vector(packetBytes)"
vector 288 RplNetwork36.host[33].udp packetSent:vector(packetBytes) ETV
attr interpolationmode none
attr source packetSent
attr title "packets sent, vector(packetBytes)"
vector 289 RplNetwork36.host[34].wlan[0].mac packetDropNotAddressToUs:vector(packetBytes) ETV
attr interpolationmode none
attr source packetDropReasonIsNotAddressedToUs(packetDropped)
attr title "packet drop: not addressed to us, vector(packetBytes)"
vector 290 RplNetwork36.sink[0].wlan[0].mac.queue packetPushed:vector(packetBytes) ETV
attr interpolationmode none
attr title "packet pushed, vector(packetBytes)"
vector 291 RplNetwork36.sink[0].wlan[0].mac.queue queueLength:vector ETV
attr interpolationmode sample-hold
attr source "count(packetPushed) - count(packetPopped) - count(packetRemoved) - count(packetDropped)"
attr title "queue length, vector"
vector 292 RplNetwork36.sink[0].wlan[0].mac.queue packetPopped:vector(packetBytes) ETV
attr interpolationmode none
attr title "packet popped, vector(packetBytes)"
vector 293 RplNetwork36.sink[0].wlan[0].mac.queue queueingTime:vector ETV
attr interpolationmode none
attr source queueingTime(packetPopped)
attr title "queueing times, vector"
attr unit s
vector 294 RplNetwork36.host[18].app[0] packetSent:vector(packetBytes) ETV
attr interpolationmode none
attr source packetSent
attr title "packets sent, vector(packetBytes)"
vector 295 RplNetwork36.host[18].udp packetSent:vector(packetBytes) ETV
attr interpolationmode none
attr source packetSent
attr title "packets sent, vector(packetBytes)"
vector 296 RplNetwork36.host[18].wlan[0].mac.queue packetPushed:vector(packetBytes) ETV
attr interpolationmode none
attr title "packet pushed, vector(packetBytes)"
vector 297 RplNetwork36.host[18].wlan[0].mac.queue queueLength:vector ETV
attr interpolationmode sample-hold
attr source "count(packetPushed) - count(packetPopped) - count(packetRemoved) - count(packetDropped)"
attr title "queue length, vector"
vector 298 RplNetwork36.host[18].wlan[0].radio radioMode:vector ETV
attr interpolationmode sample-hold
attr source radioModeChanged
attr title "Radio mode, vector"
vector 299 RplNetwork36.host[18].wlan[0].radio transmissionState:vector ETV
attr interpolationmode sample-hold
attr source transmissionStateChanged
attr title "Radio transmission state, vector"
vector 300 RplNetwork36.host[18].wlan[0].mac.queue packetPopped:vector(packetBytes) ETV
attr interpolationmode none
attr title "packet popped, vector(packetBytes)"
vector 301 RplNetwork36.host[18].wlan[0].mac.queue queueingTime:vector ETV
attr interpolationmode none
attr source queueingTime(packetPopped)
attr title "queueing times, vector"
attr unit s
vector 302 RplNetwork36.host[24].wlan[0].mac packetDropNotAddressToUs:vector(packetBytes) ETV
attr interpolationmode none
attr source packetDropReasonIsNotAddressedToUs(packetDropped)
attr title "packet drop: not addressed to us, vector(packetBytes)"
vector 303 RplNetwork36.host[11].app[0] packetSent:vector(packetBytes) ETV
attr interpolationmode none
attr source packetSent
attr title "packets sent, vector(packetBytes)"
vector 304 RplNetwork36.host[11].udp packetSent:vector(packetBytes) ETV
attr interpolationmode none
attr source packetSent
attr title "packets sent, vector(packetBytes)"
vector 305 RplNetwork36.host[11].wlan[0].mac.queue packetPushed:vector(packetBytes) ETV
attr interpolationmode none
attr title "packet pushed, vector(packetBytes)"
vector 306 RplNetwork36.host[11].wlan[0].mac.queue queueLength:vector ETV
attr interpolationmode sample-hold
attr source "count(packetPushed) - count(packetPopped) - count(packetRemoved) - count(packetDropped)"
attr title "queue length, vector"
vector 307 RplNetwork36.host[11].wlan[0].radio radioMode:vector ETV
attr interpolationmode sample-hold
attr source radioModeChanged
attr title "Radio mode, vector"
vector 308 RplNetwork36.host[11].wlan[0].radio transmissionState:vector ETV
attr interpolationmode sample-hold
attr source transmissionStateChanged
attr title "Radio transmission state, vector"
vector 309 RplNetwork36.host[11].wlan[0].mac.queue packetPopped:vector(packetBytes) ETV
attr interpolationmode none
attr title "packet popped, vector(packetBytes)"
vector 310 RplNetwork36.host[11].wlan[0].mac.queue queueingTime:vector ETV
attr interpolationmode none
attr source queueingTime(packetPopped)
attr title "queueing times, vector"
attr unit s
vector 311 RplNetwork36.host[5].wlan[0].radio receptionState:vector ETV
attr interpolationmode sample-hold
attr source receptionStateChanged
attr title "Radio reception state, vector"
vector 312 RplNetwork36.host[5].wlan[0].radio.energyConsumer powerConsumption:vector ETV
attr interpolationmode sample-hold
attr source powerConsumptionChanged
attr title "Power consumption, vector"
vector 313 RplNetwork36.host[5].energyStorage residualEnergyCapacity:vector ETV
attr interpolationmode linear
attr source residualEnergyCapacityChanged
attr title "Residual energy capacity, vector"
vector 314 RplNetwork36.host[5].energyStorage powerConsumption:vector ETV
attr interpolationmode sample-hold
attr source powerConsumptionChanged
attr title "Power consumption, vector"
vector 315 RplNetwork36.host[5].wlan[0].mac packetDropNotAddressToUs:vector(packetBytes) ETV
attr interpolationmode none
attr source packetDropReasonIsNotAddressedToUs(packetDropped)
attr title "packet drop: not addressed to us, vector(packetBytes)"
vector 316 RplNetwork36.host[10].wlan[0].radio radioMode:vector ETV
attr interpolationmode sample-hold
attr source radioModeChanged
attr title "Radio mode, vector"
vector 317 RplNetwork36.host[10].wlan[0].radio transmissionState:vector ETV
attr interpolationmode sample-hold
attr source transmissionStateChanged
attr title "Radio transmission state, vector"
vector 318 RplNetwork36.host[4].wlan[0].mac packetDropNotAddressToUs:vector(packetBytes) ETV
attr interpolationmode none
attr source packetDropReasonIsNotAddressedToUs(packetDropped)
attr title "packet drop: not addressed to us, vector(packetBytes)"
vector 319 RplNetwork36.host[9].wlan[0].mac packetDropNotAddressToUs:vector(packetBytes) ETV
attr interpolationmode none
attr source packetDropReasonIsNotAddressedToUs(packetDropped)
attr title "packet drop: not addressed to us, vector(packetBytes)"
vector 320 RplNetwork36.host[16].wlan[0].mac packetDropNotAddressToUs:vector(packetBytes) ETV
attr interpolationmode none
attr source packetDropReasonIsNotAddressedToUs(packetDropped)
attr title "packet drop: not addressed to us, vector(packetBytes)"
vector 321 RplNetwork36.host[25].app[0] packetSent:vector(packetBytes) ETV
attr interpolationmode none
attr source packetSent
attr title "packets sent, vector(packetBytes)"
vector 322 RplNetwork36.host[25].udp packetSent:vector(packetBytes) ETV
attr interpolationmode none
attr source packetSent
attr title "packets sent, vector(packetBytes)"
vector 323 RplNetwork36.host[25].wlan[0].mac.queue packetPushed:vector(packetBytes) ETV
attr interpolationmode none
attr title "packet pushed, vector(packetBytes)"
vector 324 RplNetwork36.host[25].wlan[0].mac.queue queueLength:vector ETV
attr interpolationmode sample-hold
attr source "count(packetPushed) - count(packetPopped) - count(packetRemoved) - count(packetDropped)"
attr title "queue length, vector"
vector 325 RplNetwork36.host[25].wlan[0].radio radioMode:vector ETV
attr interpolationmode sample-hold
attr source radioModeChanged
attr title "Radio mode, vector"
vector 326 RplNetwork36.host[25].wlan[0].radio transmissionState:vector ETV
attr interpolationmode sample-hold
attr source transmissionStateChanged
attr title "Radio transmission state, vector"
vector 327 RplNetwork36.host[25].wlan[0].mac.queue packetPopped:vector(packetBytes) ETV
attr interpolationmode none
attr title "packet popped, vector(packetBytes)"
vector 328 RplNetwork36.host[25].wlan[0].mac.queue queueingTime:vector ETV
attr interpolationmode none
attr source queueingTime(packetPopped)
attr title "queueing times, vector"
attr unit s
vector 329 RplNetwork36.host[31].wlan[0].mac packetDropNotAddressToUs:vector(packetBytes) ETV
attr interpolationmode none
attr source packetDropReasonIsNotAddressedToUs(packetDropped)
attr title "packet drop: not addressed to us, vector(packetBytes)"
vector 330 RplNetwork36.host[4].wlan[0].mac.queue packetPushed:vector(packetBytes) ETV
attr interpolationmode none
attr title "packet pushed, vector(packetBytes)"
vector 331 RplNetwork36.host[4].wlan[0].mac.queue queueLength:vector ETV
attr interpolationmode sample-hold
attr source "count(packetPushed) - count(packetPopped) - count(packetRemoved) - count(packetDropped)"
attr title "queue length, vector"
vector 332 RplNetwork36.host[4].wlan[0].radio radioMode:vector ETV
attr interpolationmode sample-hold
attr source radioModeChanged
attr title "Radio mode, vector"
vector 333 RplNetwork36.host[4].wlan[0].radio transmissionState:vector ETV
attr interpolationmode sample-hold
attr source transmissionStateChanged
attr title "Radio transmission state, vector"
vector 334 RplNetwork36.host[4].wlan[0].mac.queue packetPopped:vector(packetBytes) ETV
attr interpolationmode none
attr title "packet popped, vector(packetBytes)"
vector 335 RplNetwork36.host[4].wlan[0].mac.queue queueingTime:vector ETV
attr interpolationmode none
attr source queueingTime(packetPopped)
attr title "queueing times, vector"
attr unit s
vector 336 RplNetwork36.host[30].wlan[0].mac.queue packetPushed:vector(packetBytes) ETV
attr interpolationmode none
attr title "packet pushed, vector(packetBytes)"
vector 337 RplNetwork36.host[30].wlan[0].mac.queue queueLength:vector ETV
attr interpolationmode sample-hold
attr source "count(packetPushed) - count(packetPopped) - count(packetRemoved) - count(packetDropped)"
attr title "queue length, vector"
vector 338 RplNetwork36.host[30].wlan[0].radio radioMode:vector ETV
attr interpolationmode sample-hold
attr source radioModeChanged
attr title "Radio mode, vector"
vector 339 RplNetwork36.host[30].wlan[0].radio transmissionState:vector ETV
attr interpolationmode sample-hold
attr source transmissionStateChanged
attr title "Radio transmission state, vector"
vector 340 RplNetwork36.host[30].wlan[0].mac.queue packetPopped:vector(packetBytes) ETV
attr interpolationmode none
attr title "packet popped, vector(packetBytes)"
vector 341 RplNetwork36.host[30].wlan[0].mac.queue queueingTime:vector ETV
attr interpolationmode none
attr source queueingTime(packetPopped)
attr title "queueing times, vector"
attr unit s
vector 342 RplNetwork36.host[8].app[0] packetSent:vector(packetBytes) ETV
attr interpolationmode none
attr source packetSent
attr title "packets sent, vector(packetBytes)"
vector 343 RplNetwork36.host[8].udp packetSent:vector(packetBytes) ETV
attr interpolationmode none
attr source packetSent
attr title "packets sent, vector(packetBytes)"
vector 344 RplNetwork36.host[2].wlan[0].mac packetDropNotAddressToUs:vector(packetBytes) ETV
attr interpolationmode none
attr source packetDropReasonIsNotAddressedToUs(packetDropped)
attr title "packet drop: not addressed to us, vector(packetBytes)"
vector 345 RplNetwork36.host[12].wlan[0].mac.queue packetPushed:vector(packetBytes) ETV
attr interpolationmode none
attr title "packet pushed, vector(packetBytes)"
vector 346 RplNetwork36.host[12].wlan[0].mac.queue queueLength:vector ETV
attr interpolationmode sample-hold
attr source "count(packetPushed) - count(packetPopped) - count(packetRemoved) - count(packetDropped)"
attr title "queue length, vector"
vector 347 RplNetwork36.host[12].wlan[0].radio radioMode:vector ETV
attr interpolationmode sample-hold
attr source radioModeChanged
attr title "Radio mode, vector"
vector 348 RplNetwork36.host[12].wlan[0].radio transmissionState:vector ETV
attr interpolationmode sample-hold
attr source transmissionStateChanged
attr title "Radio transmission state, vector"
vector 349 RplNetwork36.host[12].wlan[0].mac.queue packetPopped:vector(packetBytes) ETV
attr interpolationmode none
attr title "packet popped, vector(packetBytes)"
vector 350 RplNetwork36.host[12].wlan[0].mac.queue queueingTime:vector ETV
attr interpolationmode none
attr source queueingTime(packetPopped)
attr title "queueing times, vector"
attr unit s
vector 351 RplNetwork36.host[12].app[0] packetSent:vector(packetBytes) ETV
attr interpolationmode none
attr source packetSent
attr title "packets sent, vector(packetBytes)"
vector 352 RplNetwork36.host[12].udp packetSent:vector(packetBytes) ETV
attr interpolationmode none
attr source packetSent
attr title "packets sent, vector(packetBytes)"
vector 353 RplNetwork36.host[6].wlan[0].mac packetDropNotAddressToUs:vector(packetBytes) ETV
attr interpolationmode none
attr source packetDropReasonIsNotAddressedToUs(packetDropped)
attr title "packet drop: not addressed to us, vector(packetBytes)"
vector 354 RplNetwork36.host[10].wlan[0].mac.queue packetPushed:vector(packetBytes) ETV
attr interpolationmode none
attr title "packet pushed, vector(packetBytes)"
vector 355 RplNetwork36.host[10].wlan[0].mac.queue queueLength:vector ETV
attr interpolationmode sample-hold
attr source "count(packetPushed) - count(packetPopped) - count(packetRemoved) - count(packetDropped)"
attr title "queue length, vector"
vector 356 RplNetwork36.host[10].wlan[0].mac.queue packetPopped:vector(packetBytes) ETV
attr interpolationmode none
attr title "packet popped, vector(packetBytes)"
vector 357 RplNetwork36.host[10].wlan[0].mac.queue queueingTime:vector ETV
attr interpolationmode none
attr source queueingTime(packetPopped)
attr title "queueing times, vector"
attr unit s
vector 358 RplNetwork36.host[19].app[0] packetSent:vector(packetBytes) ETV
attr interpolationmode none
attr source packetSent
attr title "packets sent, vector(packetBytes)"
vector 359 RplNetwork36.host[19].udp packetSent:vector(packetBytes) ETV
attr interpolationmode none
attr source packetSent
attr title "packets sent, vector(packetBytes)"
vector 360 RplNetwork36.host[19].wlan[0].mac.queue packetPushed:vector(packetBytes) ETV
attr interpolationmode none
attr title "packet pushed, vector(packetBytes)"
vector 361 RplNetwork36.host[19].wlan[0].mac.queue queueLength:vector ETV
attr interpolationmode sample-hold
attr source "count(packetPushed) - count(packetPopped) - count(packetRemoved) - count(packetDropped)"
attr title "queue length, vector"
vector 362 RplNetwork36.host[19].wlan[0].mac.queue packetPopped:vector(packetBytes) ETV
attr interpolationmode none
attr title "packet popped, vector(packetBytes)"
vector 363 RplNetwork36.host[19].wlan[0].mac.queue queueingTime:vector ETV
attr interpolationmode none
attr source queueingTime(packetPopped)
attr title "queueing times, vector"
attr unit s
vector 364 RplNetwork36.host[23].app[0] packetSent:vector(packetBytes) ETV
attr interpolationmode none
attr source packetSent
attr title "packets sent, vector(packetBytes)"
vector 365 RplNetwork36.host[23].udp packetSent:vector(packetBytes) ETV
attr interpolationmode none
attr source packetSent
attr title "packets sent, vector(packetBytes)"
vector 366 RplNetwork36.host[23].wlan[0].mac.queue packetPushed:vector(packetBytes) ETV
attr interpolationmode none
attr title "packet pushed, vector(packetBytes)"
vector 367 RplNetwork36.host[23].wlan[0].mac.queue queueLength:vector ETV
attr interpolationmode sample-hold
attr source "count(packetPushed) - count(packetPopped) - count(packetRemoved) - count(packetDropped)"
attr title "queue length, vector"
vector 368 RplNetwork36.host[23].wlan[0].mac.queue packetPopped:vector(packetBytes) ETV
attr interpolationmode none
attr title "packet popped, vector(packetBytes)"
vector 369 RplNetwork36.host[23].wlan[0].mac.queue queueingTime:vector ETV
attr interpolationmode none
attr source queueingTime(packetPopped)
attr title "queueing times, vector"
attr unit s
vector 370 RplNetwork36.host[32].wlan[0].mac.queue packetPushed:vector(packetBytes) ETV
attr interpolationmode none
attr title "packet pushed, vector(packetBytes)"
vector 371 RplNetwork36.host[32].wlan[0].mac.queue queueLength:vector ETV
attr interpolationmode sample-hold
attr source "count(packetPushed) - count(packetPopped) - count(packetRemoved) - count(packetDropped)"
attr title "queue length, vector"
vector 372 RplNetwork36.host[32].wlan[0].radio radioMode:vector ETV
attr interpolationmode sample-hold
attr source radioModeChanged
attr title "Radio mode, vector"
vector 373 RplNetwork36.host[32].wlan[0].radio transmissionState:vector ETV
attr interpolationmode sample-hold
attr source transmissionStateChanged
attr title "Radio transmission state, vector"
[...]
256	16494221 4946 55296 469318 86.446233865125 3529.367810847443 162 0 1 81 81
257	16499167 4946 55298 469356 86.446361865125 3529.371810847443 162 2 3 405 1053
258	16504113 9892 55298 469356 86.446361865125 3529.371810847443 324 0 2 324 486
259	16514005 2629 55298 469318 86.446361865125 3529.367810847443 81 73 113 8913 989649
260	16516634 3040 55298 469318 86.446361865125 3529.367810847443 81 0.000128 0.002368 0.098688 0.000160129024
261	16519674 1992 55385 465501 86.729648765177 3496.729648765177 63 56 56 3528 197568
262	16521666 1992 55387 465502 86.729648765177 3496.729648765177 63 64 64 4032 258048
263	16523658 2569 55389 471611 86.729648765177 3571.300536170137 79 73 113 8767 978991
264	16526227 4830 55389 471613 86.729648765177 3571.301304170137 158 0 1 79 79
265	16531057 12556 55391 471651 86.731696765177 3571.305304170137 410 2 3 1025 2665
266	16543613 25112 55391 471651 86.731696765177 3571.305304170137 820 0 2 820 1230
267	16568725 2569 55391 471613 86.731696765177 3571.301304170137 79 73 113 8767 978991
268	16571294 2968 55391 471613 86.731696765177 3571.301304170137 79 0.000128 0.002368 0.106432 0.000189485056
269	16574262 9908 55434 470694 86.735696898603 3544.544058773402 315 5 113 15183 1613619
270	16584170 7974 55516 470616 86.736241032029 3544.543514639976 252 5 113 14868 1612044
271	16592144 2531 55553 467665 86.757152018186 3516.124010737985 78 73 113 8654 966222
272	16594675 4758 55553 467667 86.757152018186 3516.125418737985 156 0 1 78 78
273	16599433 8620 55555 469271 86.758240018186 3527.847588860524 282 2 3 705 1833
274	16608053 17240 55555 469271 86.758240018186 3527.847588860524 564 0 2 564 846
275	16625293 2531 55555 467667 86.758240018186 3516.125418737985 78 73 113 8654 966222
276	16627824 2925 55555 467667 86.758240018186 3516.125418737985 78 0.000128 0.002368 0.097024 0.000168968192
277	16630749 26825 55559 471476 86.758432151612 3562.437085102361 882 0 3 1384 2984
278	16657574 64592 55559 471476 86.758432151612 3562.437085102361 1948 0 0.1 12.942 0.82069400000001
279	16722166 50722 55559 471476 86.758432151612 3562.437085102361 1114 -7.1616119302047 -0.17569612830322 -3888.5665444743 18336.405632511
280	16772888 64592 55559 471476 86.758432151612 3562.437085102361 1948 0 0.1 12.942 0.82069400000001
281	16837480 2441 55643 465670 87.614526488875 3498.14173836261 77 73 113 8541 953453
282	16839921 4582 55643 465672 87.614526488875 3498.14346636261 154 0 1 77 77
283	16844503 8446 55645 469773 87.616574488875 3539.941417989058 280 2 3 700 1820
284	16852949 16892 55645 469773 87.616574488875 3539.941417989058 560 0 2 560 840
285	16869841 2441 55645 465672 87.616574488875 3498.14346636261 77 73 113 8541 953453
286	16872282 2830 55645 465672 87.616574488875 3498.14346636261 77 0.000128 0.002368 0.093696 0.000155435008
287	16875112 1929 55732 465667 88.14173836261 3498.14173836261 63 56 56 3528 197568
288	16877041 1929 55733 465668 88.14173836261 3498.14173836261 63 64 64 4032 258048
289	16878970 4112 55781 469035 88.148106496036 3526.398333417406 126 113 113 14238 1608894
290	16883082 602 55900 460167 89.470135890646 3450.96718176361 19 73 113 1907 197971
291	16883684 1140 55900 460169 89.470135890646 3450.96858976361 38 0 1 19 19
292	16884824 602 55902 460169 89.472183890646 3450.96858976361 19 73 113 1907 197971
293	16885426 703 55902 460169 89.472183890646 3450.96858976361 19 0.000128 0.002368 0.024192 4.1926656e-05
294	16886129 1992 55990 465921 89.509736918844 3499.509736918844 63 56 56 3528 197568
295	16888121 1992 55991 465922 89.509736918844 3499.509736918844 63 64 64 4032 258048
296	16890113 2535 55993 465924 89.509736918844 3499.509736918844 78 73 113 8614 958782
297	16892648 4768 55993 465926 89.509736918844 3499.512104918844 156 0 1 78 78
298	16897416 12488 55995 467784 89.510184918844 3516.129962871411 408 2 3 1020 2652
299	16909904 24976 55995 467784 89.510184918844 3516.129962871411 816 0 2 816 1224
300	16934880 2535 55995 465926 89.510184918844 3499.512104918844 78 73 113 8614 958782
301	16937415 2930 55995 465926 89.510184918844 3499.512104918844 78 0.000128 0.002368 0.097024 0.000161595392
302	16940345 7907 56039 468781 89.51418505227 3523.341101156997 252 5 113 14868 1612044
303	16948252 1992 56155 466086 89.594353740104 3499.594353740104 63 56 56 3528 197568
304	16950244 1992 56156 466087 89.594353740104 3499.594353740104 63 64 64 4032 258048
305	16952236 2626 56158 466089 89.594353740104 3499.594353740104 81 73 113 8913 989649
306	16954862 4940 56158 466091 89.594353740104 3499.595121740104 162 0 1 81 81
307	16959802 4940 56160 466129 89.595761740104 3499.599121740104 162 2 3 405 1053
308	16964742 9880 56160 466129 89.595761740104 3499.599121740104 324 0 2 324 486
309	16974622 2626 56160 466091 89.595761740104 3499.595121740104 81 73 113 8913 989649
310	16977248 3037 56160 466091 89.595761740104 3499.595121740104 81 0.000128 0.002368 0.090688 0.000145690624
311	16980285 30904 56162 470435 89.59595387353 3542.221698053306 1016 0 3 1586 3336
312	17011189 70096 56162 470506 89.59595387353 3543.307815606098 2112 0 0.1 13.851 0.84438700000001
313	17081285 54160 56162 470506 89.59595387353 3543.307815606098 1192 -7.1242643352122 -0.18140877174706 -4163.0587937643 19650.792626613
314	17135445 70096 56162 470506 89.59595387353 3543.307815606098 2112 0 0.1 13.851 0.84438700000001
315	17205541 4049 56202 468039 89.59976187353 3519.254431467441 126 113 113 14238 1608894
316	17209590 12302 56203 468530 89.59976187353 3523.136838358301 406 2 3 1015 2639
317	17221892 24604 56203 468530 89.59976187353 3523.136838358301 812 0 2 812 1218
318	17246496 6044 56282 470029 89.600306006956 3540.988365101533 189 5 113 14553 1610469
319	17252540 13892 56283 470276 89.600306006956 3541.257648620024 441 5 113 22617 2419641
320	17266432 13701 56285 469112 89.600306006956 3526.398877550832 441 5 113 15813 1616769
321	17280133 1992 56323 466251 90.350631384645 3500.350631384645 63 56 56 3528 197568
322	17282125 1992 56324 466252 90.350631384645 3500.350631384645 63 64 64 4032 258048
323	17284117 2597 56326 466254 90.350631384645 3500.350631384645 80 73 113 8840 984320
324	17286714 4884 56326 466256 90.350631384645 3500.352679384645 160 0 1 80 80
325	17291598 8746 56328 468775 90.352679384645 3523.341101023571 286 2 3 715 1859
326	17300344 17492 56328 468775 90.352679384645 3523.341101023571 572 0 2 572 858
327	17317836 2597 56328 466256 90.352679384645 3500.352679384645 80 73 113 8840 984320
328	17320433 3002 56328 466256 90.352679384645 3500.352679384645 80 0.000128 0.002368 0.10336 0.00017332224
329	17323435 6169 56374 469197 90.356679518071 3527.847044860524 189 113 113 21357 2413341
330	17329604 2591 56492 467994 90.459132604619 3519.248703334015 80 73 113 8800 976880
331	17332195 4874 56492 467996 90.459132604619 3519.250431334015 160 0 1 80 80
332	17337069 8612 56494 470433 90.459580604619 3542.22169791988 286 2 3 715 1859
333	17345681 17224 56494 470433 90.459580604619 3542.22169791988 572 0 2 572 858
334	17362905 2591 56494 467996 90.459580604619 3519.250431334015 80 73 113 8800 976880
335	17365496 2997 56494 467996 90.459580604619 3519.250431334015 80 0.000128 0.002368 0.1072 0.00018003968
336	17368493 2562 56582 471436 92.602863554223 3562.431037102361 79 73 113 8687 964111
337	17371055 4820 56582 471438 92.602863554223 3562.433085102361 158 0 1 79 79
338	17375875 4820 56584 471476 92.603631554223 3562.437085102361 158 2 3 395 1027
339	17380695 9640 56584 471476 92.603631554223 3562.437085102361 316 0 2 316 474
340	17390335 2562 56584 471438 92.603631554223 3562.433085102361 79 73 113 8687 964111
341	17392897 2963 56584 471438 92.603631554223 3562.433085102361 79 0.000128 0.002368 0.102272 0.000169680896
342	17395860 1992 56668 466417 93.128931710962 3503.128931710962 63 56 56 3528 197568
343	17397852 1992 56669 466418 93.128931710962 3503.128931710962 63 64 64 4032 258048
344	17399844 8102 56716 470274 93.135299844388 3541.257648620024 252 5 113 21672 2414916
345	17407946 2535 56927 471522 94.064838192474 3571.230938044376 78 73 113 8654 966222
346	17410481 4766 56927 471524 94.064838192474 3571.233306044376 156 0 1 78 78
347	17415247 8626 56929 471562 94.066566192474 3571.237306044376 282 2 3 705 1833
348	17423873 17252 56929 471562 94.066566192474 3571.237306044376 564 0 2 564 846
349	17441125 2535 56929 471524 94.066566192474 3571.233306044376 78 73 113 8654 966222
350	17443660 2929 56929 471524 94.066566192474 3571.233306044376 78 0.000128 0.002368 0.098944 0.000165978112
351	17446589 1992 57014 466583 94.382848897949 3504.382848897949 63 56 56 3528 197568
352	17448581 1992 57015 466584 94.382848897949 3504.382848897949 63 64 64 4032 258048
353	17450573 6044 57061 470195 94.387617031375 3541.257104486598 189 5 113 14553 1610469
354	17456617 2504 57181 468490 94.825849457582 3523.130470358301 77 73 113 8541 953453
355	17459121 4708 57181 468492 94.825849457582 3523.132838358301 154 0 1 77 77
356	17463829 2504 57183 468492 94.827897457582 3523.132838358301 77 73 113 8541 953453
357	17466333 2893 57183 468492 94.827897457582 3523.132838358301 77 0.000128 0.002368 0.090176 0.000152793088
358	17469226 1992 57279 466836 97.989860048983 3507.989860048983 63 56 56 3528 197568
359	17471218 1992 57280 466837 97.989860048983 3507.989860048983 63 64 64 4032 258048
360	17473210 2407 57282 466839 97.989860048983 3507.989860048983 74 73 113 8322 937466
361	17475617 4520 57282 466841 97.989860048983 3507.991588048983 148 0 1 74 74
362	17480137 2407 57284 466841 97.991908048983 3507.991588048983 74 73 113 8322 937466
363	17482544 2778 57284 466841 97.991908048983 3507.991588048983 74 0.000128 0.002368 0.094592 0.000164929536
364	17485322 1992 57447 467004 98.197945426218 3508.197945426218 63 56 56 3528 197568
365	17487314 1992 57448 467005 98.197945426218 3508.197945426218 63 64 64 4032 258048
366	17489306 2590 57450 467007 98.197945426218 3508.197945426218 80 73 113 8840 984320
367	17491896 4870 57450 467009 98.197945426218 3508.199993426218 160 0 1 80 80
368	17496766 2590 57452 467009 98.199033426218 3508.199993426218 80 73 113 8840 984320
369	17499356 2995 57452 467009 98.199033426218 3508.199993426218 80 0.000128 0.002368 0.10048 0.00017309696
370	17502351 2598 57613 468325 98.368790492061 3521.819655920845 80 73 113 8800 976880
371	17504949 4888 57613 468327 98.368790492061 3521.821063920845 160 0 1 80 80
372	17509837 4888 57615 468365 98.369238492061 3521.825063920845 160 2 3 400 1040
373	17514725 9776 57615 468365 98.369238492061 3521.825063920845 320 0 2 320 480
374	17524501 2598 57615 468327 98.369238492061 3521.821063920845 80 73 113 8800 976880
375	17527099 3004 57615 468327 98.369238492061 3521.821063920845 80 0.000128 0.002368 0.112 0.00020799488
376	17530103 1993 57797 467169 102.600542937871 3512.600542937871 63 56 56 3528 197568
377	17532096 1993 57798 467170 102.600542937871 3512.600542937871 63 64 64 4032 258048
378	17534089 16170 57846 469938 102.606271071297 3540.252081328026 528 2 3 1320 3432
379	17550259 32340 57846 469938 102.606271071297 3540.252081328026 1056 0 2 1056 1584
380	17582599 1993 57972 467335 104.039485964458 3514.039485964458 63 56 56 3528 197568
381	17584592 1993 57973 467336 104.039485964458 3514.039485964458 63 64 64 4032 258048
382	17586585 2598 57975 467338 104.039485964458 3514.039485964458 80 73 113 8800 976880
383	17589183 4888 57975 467340 104.039485964458 3514.040573964458 160 0 1 80 80
384	17594071 8748 57977 467620 104.040253964458 3514.398527340809 286 2 3 715 1859
385	17602819 17496 57977 467620 104.040253964458 3514.398527340809 572 0 2 572 858
386	17620315 2598 57977 467340 104.040253964458 3514.040573964458 80 73 113 8800 976880
387	17622913 3004 57977 467340 104.040253964458 3514.040573964458 80 0.000128 0.002368 0.10112 0.0001622016
388	17625917 4113 58019 467873 104.044254097884 3518.362063608427 126 113 113 14238 1608894
389	17630030 1993 58137 467499 104.393215207383 3514.393215207383 63 56 56 3528 197568
390	17632023 1993 58138 467500 104.393215207383 3514.393215207383 63 64 64 4032 258048
391	17634016 2599 58140 467502 104.393215207383 3514.393215207383 80 73 113 8800 976880
392	17636615 4890 58140 467504 104.393215207383 3514.393983207383 160 0 1 80 80
393	17641505 4890 58142 467542 104.394623207383 3514.397983207383 160 2 3 400 1040
394	17646395 9780 58142 467542 104.394623207383 3514.397983207383 320 0 2 320 480
395	17656175 2599 58142 467504 104.394623207383 3514.393983207383 80 73 113 8800 976880
396	17658774 3005 58142 467504 104.394623207383 3514.393983207383 80 0.000128 0.002368 0.10304 0.00018112512
397	17661779 6171 58183 470194 104.398623340809 3541.257104486598 189 113 113 21357 2413341
398	17667950 1994 58481 467662 106.124010737985 3516.124010737985 63 56 56 3528 197568
399	17669944 1994 58482 467663 106.124010737985 3516.124010737985 63 64 64 4032 258048
400	17671938 4114 58530 468701 106.129738871411 3523.340557023571 126 113 113 14238 1608894
401	17676052 1994 58743 467826 108.356015475001 3518.356015475001 63 56 56 3528 197568
402	17678046 1994 58744 467827 108.356015475001 3518.356015475001 63 64 64 4032 258048
403	17680040 8570 58792 470517 108.361423608427 3543.31162305597 280 2 3 700 1820
404	17688610 17140 58792 470517 108.361423608427 3543.31162305597 560 0 2 560 840
405	17705750 1994 58910 467991 109.248703334015 3519.248703334015 63 56 56 3528 197568
406	17707744 1994 58911 467992 109.248703334015 3519.248703334015 63 64 64 4032 258048
407	17709738 8103 58957 470437 109.254111467441 3542.221698053306 252 5 113 21672 2414916
408	17717841 8041 59039 470614 109.254655600867 3544.543514639976 252 5 113 21672 2414916
409	17725882 1994 59077 468156 111.120732675772 3521.120732675772 63 56 56 3528 197568
410	17727876 1994 59078 468157 111.120732675772 3521.120732675772 63 64 64 4032 258048
411	17729870 1994 59245 468322 111.819655920845 3521.819655920845 63 56 56 3528 197568
412	17731864 1994 59246 468323 111.819655920845 3521.819655920845 63 64 64 4032 258048
413	17733858 2621 59412 470315 112.33987090256 3542.215105786454 81 73 113 8913 989649
414	17736479 4930 59412 470317 112.33987090256 3542.217153786454 162 0 1 81 81
415	17741409 4930 59414 470355 112.34095890256 3542.221153786454 162 2 3 405 1053
416	17746339 9860 59414 470355 112.34095890256 3542.221153786454 324 0 2 324 486
417	17756199 2621 59414 470317 112.34095890256 3542.217153786454 81 73 113 8913 989649
418	17758820 3032 59414 470317 112.34095890256 3542.217153786454 81 0.000128 0.002368 0.108608 0.000182841344
419	17761852 1994 59496 468487 113.130470358301 3523.130470358301 63 56 56 3528 197568
420	17763846 1994 59497 468488 113.130470358301 3523.130470358301 63 64 64 4032 258048
421	17765840 1994 59662 468653 113.335468890145 3523.335468890145 63 56 56 3528 197568
422	17767834 1994 59663 468654 113.335468890145 3523.335468890145 63 64 64 4032 258048
423	17769828 2537 59665 468656 113.335468890145 3523.335468890145 78 73 113 8734 981102
424	17772365 4766 59665 468658 113.335468890145 3523.336556890145 156 0 1 78 78
425	17777131 4766 59667 468696 113.336876890145 3523.340556890145 156 2 3 390 1014
426	17781897 9532 59667 468696 113.336876890145 3523.340556890145 312 0 2 312 468
427	17791429 2537 59667 468658 113.336876890145 3523.336556890145 78 73 113 8734 981102
428	17793966 2929 59667 468658 113.336876890145 3523.336556890145 78 0.000128 0.002368 0.103104 0.000179023872
429	17796895 1994 59827 468818 115.104167815298 3525.104167815298 63 56 56 3528 197568
430	17798889 1994 59828 468819 115.104167815298 3525.104167815298 63 64 64 4032 258048
431	17800883 1931 59993 468984 116.39324528398 3526.39324528398 63 56 56 3528 197568
432	17802814 1931 59994 468985 116.39324528398 3526.39324528398 63 64 64 4032 258048
433	17804745 1994 60159 469150 117.841636727098 3527.841636727098 63 56 56 3528 197568
434	17806739 1994 60160 469151 117.841636727098 3527.841636727098 63 64 64 4032 258048
435	17808733 1994 60322 469313 119.367042847443 3529.367042847443 63 56 56 3528 197568
436	17810727 1994 60323 469314 119.367042847443 3529.367042847443 63 64 64 4032 258048
437	17812721 1995 60487 469478 126.255253008567 3536.255253008567 63 56 56 3528 197568
438	17814716 1995 60488 469479 126.255253008567 3536.255253008567 63 64 64 4032 258048
439	17816711 1995 60492 469483 128.095185381826 3538.095185381826 63 56 56 3528 197568
440	17818706 1995 60493 469484 128.095185381826 3538.095185381826 63 64 64 4032 258048
441	17820701 2441 60495 469486 128.095185381826 3538.095185381826 75 73 113 8435 950235
442	17823142 4584 60495 469488 128.095185381826 3538.097553381826 150 0 1 75 75
443	17827726 2441 60497 469488 128.095953381826 3538.097553381826 75 73 113 8435 950235
444	17830167 2817 60497 469488 128.095953381826 3538.097553381826 75 0.000128 0.002368 0.096 0.0001634304
445	17832984 1995 60660 469651 129.935785855632 3539.935785855632 63 56 56 3528 197568
446	17834979 1995 60661 469652 129.935785855632 3539.935785855632 63 64 64 4032 258048
447	17836974 2566 60663 469654 129.935785855632 3539.935785855632 79 73 113 8727 971551
448	17839540 4826 60663 469656 129.935785855632 3539.936873855632 158 0 1 79 79
449	17844366 2566 60665 469656 129.936873855632 3539.936873855632 79 73 113 8727 971551
450	17846932 2966 60665 469656 129.936873855632 3539.936873855632 79 0.000128 0.002368 0.093632 0.000146886656
451	17849898 1869 60824 469815 130.2470891946 3540.2470891946 63 56 56 3528 197568
452	17851767 1869 60825 469816 130.2470891946 3540.2470891946 63 64 64 4032 258048
453	17853636 1995 60990 469981 130.983916968107 3540.983916968107 63 56 56 3528 197568
454	17855631 1995 60991 469982 130.983916968107 3540.983916968107 63 64 64 4032 258048
455	17857626 2536 60993 469984 130.983916968107 3540.983916968107 78 73 113 8654 966222
456	17860162 4768 60993 469986 130.983916968107 3540.984364968107 156 0 1 78 78
457	17864930 4768 60995 470024 130.984684968107 3540.988364968107 156 2 3 390 1014
458	17869698 9536 60995 470024 130.984684968107 3540.988364968107 312 0 2 312 468
459	17879234 2536 60995 469986 130.984684968107 3540.984364968107 78 73 113 8654 966222
460	17881770 2930 60995 469986 130.984684968107 3540.984364968107 78 0.000128 0.002368 0.101824 0.000173166592
461	17884700 1995 61155 470146 131.252656353172 3541.252656353172 63 56 56 3528 197568
462	17886695 1995 61156 470147 131.252656353172 3541.252656353172 63 64 64 4032 258048
463	17888690 2506 61158 470477 131.252656353172 3543.30685505597 77 73 113 8621 968333
464	17891196 4708 61158 470479 131.252656353172 3543.30762305597 154 0 1 77 77
465	17895904 2506 61160 470479 131.253744353172 3543.30762305597 77 73 113 8621 968333
466	17898410 2893 61160 470479 131.253744353172 3543.30762305597 77 0.000128 0.002368 0.105216 0.000182550528
467	17901303 1995 61321 470312 132.215105786454 3542.215105786454 63 56 56 3528 197568
468	17903298 1995 61322 470313 132.215105786454 3542.215105786454 63 64 64 4032 258048
469	17905293 1932 61484 470567 134.53906650655 3544.53906650655 63 56 56 3528 197568
470	17907225 1932 61485 470568 134.53906650655 3544.53906650655 63 64 64 4032 258048
471	17909157 419 88332 465007 311.688397706486 3493.726592647376 13 113 113 1469 165997
472	17909576 786 88332 465009 311.688397706486 3493.727680647376 26 0 1 13 13
473	17910362 786 88334 465047 311.690445706486 3493.731680647376 26 2 3 65 169
474	17911148 4216 88334 465047 311.690445706486 3493.731680647376 130 0 0.1 1.43 0.13026
475	17915364 1776 88334 465047 311.690445706486 3493.731680647376 39 -6.9925624972948 -0.62362863541297 -124.48103622977 597.10515080181
476	17917140 4216 88334 465047 311.690445706486 3493.731680647376 130 0 0.1 1.43 0.13026
477	17921356 786 88334 465047 311.690445706486 3493.731680647376 26 0 1 13 13
478	17922142 1572 88334 465047 311.690445706486 3493.731680647376 52 0 2 52 78
479	17923714 419 88334 465009 311.690445706486 3493.727680647376 13 113 113 1469 165997
480	17924133 484 88334 465009 311.690445706486 3493.727680647376 13 0.000128 0.002048 0.016064 2.3867392e-05

