file 55512084 1780014967                                        
version 2
run _MP2P_Normal_100-999-20260528-21:33:52-10534
attr configname _MP2P_Normal_100
attr datetime 20260528-21:33:52
attr experiment _MP2P_Normal_100
attr inifile omnetpp_RPL_MP2P_100.ini
attr iterationvars ""
attr iterationvarsf ""
attr measurement ""
attr network RplNetwork100
attr processid 10534
attr repetition 999
attr replication #999
attr resultdir results
attr runnumber 999
attr seedset 999
param **.host[*].numApps 1
param **.host[*].app[0].typename "\"UdpBasicApp\""
param **.host[*].app[0].destAddresses "\"sink[0]\""
param **.host[*].app[0].destPort 1000
param **.host[*].app[0].messageLength 56B
param **.host[*].app[0].sendInterval 55s
param **.host[*].app[0].startTime uniform(0s,90s)
param **.sink[*].numApps 1
param **.sink[*].app[0].typename "\"UdpSink\""
param **.sink[*].app[0].localPort 1000
param **.host[*].app[0].recordStats true
param **.sink[*].app[0].recordStats true
param **.host[*].energyStorage.typename "\"IdealEpEnergyStorage\""
param **.host[*].energyStorage.nominalCapacity 1000J
param **.host[*].energyStorage.initialCapacity 1000J
param **.host[*].wlan[*].radio.energyConsumer.typename "\"StateBasedEpEnergyConsumer\""
param **.numNodes 100
param **.hasIpv6 true
param **.hasIpv4 false
param **.mtu 1500B
param **.neighbourDiscovery.raEnabled false
param **.neighbourDiscovery.addRandomDelays true
param **.neighbourDiscovery.skipDad true
param **.radioMedium.typename "\"Ieee802154NarrowbandDimensionalRadioMedium\""
param **.radio.typename "\"Ieee802154NarrowbandDimensionalRadio\""
param **.radioMedium.backgroundNoise.power -110dBm
param **.radioMedium.attenuation.typename "\"LogNormalShadowing\""
param **.radioMedium.attenuation.pathLossExponent 3.5
param **.radioMedium.attenuation.sigma 6.0
param **.wlan[*].typename "\"Ieee802154NarrowbandInterface\""
param **.wlan[*].mac.typename "\"Ieee802154Mac\""
param **.wlan[0].radio.transmitter.bitrate 250kbps
param **.wlan[0].radio.receiver.sensitivity -85dBm
param **.wlan[0].radio.transmitter.power 1mW
param **.sink[*].rpl.isRoot true
param **.sink[*].rpl.storing true
param **.rpl.numDaoRetransmitAttempts 10
param **.rpl.daoEnabled true
param **.rpl.poisoning false
param **.rpl.useBackupAsPreferred false
param **.rpl.networkProtocolModule "\"^.ipv6.ipv6\""
param **.rpl.routingTableModule "\"^.ipv6.routingTable\""
param **.rpl.drawConnectors true
param **.numSinks 1
param **.sensor[*].mobility.typename "\"StationaryMobility\""
param **.sink[*].mobility.typename "\"StationaryMobility\""
param **.mobility.constraintAreaMinX 0m
param **.mobility.constraintAreaMinY 0m
param **.mobility.constraintAreaMaxX 800m
param **.mobility.constraintAreaMaxY 800m
param *.sink[*].mobility.initialZ 0m
param *.host[*].mobility.typename "\"StationaryMobility\""
param *.host[*].mobility.initFromDisplayString false
param *.host[*].mobility.initialZ 0m
param *.sink[0].mobility.initialX 220m
param *.sink[0].mobility.initialY 180m
param *.host[0].mobility.initialX 40m
param *.host[0].mobility.initialY 0m
param *.host[1].mobility.initialX 80m
param *.host[1].mobility.initialY 0m
param *.host[2].mobility.initialX 120m
param *.host[2].mobility.initialY 0m
param *.host[3].mobility.initialX 160m
param *.host[3].mobility.initialY 0m
param *.host[4].mobility.initialX 200m
param *.host[4].mobility.initialY 0m
param *.host[5].mobility.initialX 240m
param *.host[5].mobility.initialY 0m
param *.host[6].mobility.initialX 280m
param *.host[6].mobility.initialY 0m
param *.host[7].mobility.initialX 320m
param *.host[7].mobility.initialY 0m
param *.host[8].mobility.initialX 360m
param *.host[8].mobility.initialY 0m
param *.host[9].mobility.initialX 400m
param *.host[9].mobility.initialY 0m
param *.host[10].mobility.initialX 40m
param *.host[10].mobility.initialY 40m
param *.host[11].mobility.initialX 80m
param *.host[11].mobility.initialY 40m
param *.host[12].mobility.initialX 120m
param *.host[12].mobility.initialY 40m
param *.host[13].mobility.initialX 160m
param *.host[13].mobility.initialY 40m
param *.host[14].mobility.initialX 200m
param *.host[14].mobility.initialY 40m
param *.host[15].mobility.initialX 240m
param *.host[15].mobility.initialY 40m
param *.host[16].mobility.initialX 280m
param *.host[16].mobility.initialY 40m
param *.host[17].mobility.initialX 320m
param *.host[17].mobility.initialY 40m
param *.host[18].mobility.initialX 360m
param *.host[18].mobility.initialY 40m
param *.host[19].mobility.initialX 400m
param *.host[19].mobility.initialY 40m
param *.host[20].mobility.initialX 40m
param *.host[20].mobility.initialY 80m
param *.host[21].mobility.initialX 80m
param *.host[21].mobility.initialY 80m
param *.host[22].mobility.initialX 120m
param *.host[22].mobility.initialY 80m
param *.host[23].mobility.initialX 160m
param *.host[23].mobility.initialY 80m
param *.host[24].mobility.initialX 200m
param *.host[24].mobility.initialY 80m
param *.host[25].mobility.initialX 240m
param *.host[25].mobility.initialY 80m
param *.host[26].mobility.initialX 280m
param *.host[26].mobility.initialY 80m
param *.host[27].mobility.initialX 320m
param *.host[27].mobility.initialY 80m
param *.host[28].mobility.initialX 360m
param *.host[28].mobility.initialY 80m
param *.host[29].mobility.initialX 400m
param *.host[29].mobility.initialY 80m
param *.host[30].mobility.initialX 40m
param *.host[30].mobility.initialY 120m
param *.host[31].mobility.initialX 80m
param *.host[31].mobility.initialY 120m
param *.host[32].mobility.initialX 120m
param *.host[32].mobility.initialY 120m
param *.host[33].mobility.initialX 160m
param *.host[33].mobility.initialY 120m
param *.host[34].mobility.initialX 200m
param *.host[34].mobility.initialY 120m
param *.host[35].mobility.initialX 240m
param *.host[35].mobility.initialY 120m
param *.host[36].mobility.initialX 280m
param *.host[36].mobility.initialY 120m
param *.host[37].mobility.initialX 320m
param *.host[37].mobility.initialY 120m
param *.host[38].mobility.initialX 360m
param *.host[38].mobility.initialY 120m
param *.host[39].mobility.initialX 400m
param *.host[39].mobility.initialY 120m
param *.host[40].mobility.initialX 40m
param *.host[40].mobility.initialY 160m
param *.host[41].mobility.initialX 80m
param *.host[41].mobility.initialY 160m
param *.host[42].mobility.initialX 120m
param *.host[42].mobility.initialY 160m
param *.host[43].mobility.initialX 160m
param *.host[43].mobility.initialY 160m
param *.host[44].mobility.initialX 200m
param *.host[44].mobility.initialY 160m
param *.host[45].mobility.initialX 240m
param *.host[45].mobility.initialY 160m
param *.host[46].mobility.initialX 280m
param *.host[46].mobility.initialY 160m
param *.host[47].mobility.initialX 320m
param *.host[47].mobility.initialY 160m
param *.host[48].mobility.initialX 360m
param *.host[48].mobility.initialY 160m
param *.host[49].mobility.initialX 400m
param *.host[49].mobility.initialY 160m
param *.host[50].mobility.initialX 40m
param *.host[50].mobility.initialY 200m
param *.host[51].mobility.initialX 80m
param *.host[51].mobility.initialY 200m
param *.host[52].mobility.initialX 120m
param *.host[52].mobility.initialY 200m
param *.host[53].mobility.initialX 160m
param *.host[53].mobility.initialY 200m
param *.host[55].mobility.initialX 240m
param *.host[55].mobility.initialY 200m
param *.host[56].mobility.initialX 280m
param *.host[56].mobility.initialY 200m
param *.host[57].mobility.initialX 320m
param *.host[57].mobility.initialY 200m
param *.host[58].mobility.initialX 360m
param *.host[58].mobility.initialY 200m
param *.host[59].mobility.initialX 400m
param *.host[59].mobility.initialY 200m
param *.host[60].mobility.initialX 40m
param *.host[60].mobility.initialY 240m
param *.host[61].mobility.initialX 80m
param *.host[61].mobility.initialY 240m
param *.host[62].mobility.initialX 120m
param *.host[62].mobility.initialY 240m
param *.host[63].mobility.initialX 160m
param *.host[63].mobility.initialY 240m
param *.host[64].mobility.initialX 200m
param *.host[64].mobility.initialY 240m
param *.host[65].mobility.initialX 240m
param *.host[65].mobility.initialY 240m
param *.host[66].mobility.initialX 280m
param *.host[66].mobility.initialY 240m
param *.host[67].mobility.initialX 320m
param *.host[67].mobility.initialY 240m
param *.host[68].mobility.initialX 360m
param *.host[68].mobility.initialY 240m
param *.host[69].mobility.initialX 400m
param *.host[69].mobility.initialY 240m
param *.host[70].mobility.initialX 40m
param *.host[70].mobility.initialY 280m
param *.host[71].mobility.initialX 80m
param *.host[71].mobility.initialY 280m
param *.host[72].mobility.initialX 120m
param *.host[72].mobility.initialY 280m
param *.host[73].mobility.initialX 160m
param *.host[73].mobility.initialY 280m
param *.host[74].mobility.initialX 200m
param *.host[74].mobility.initialY 280m
param *.host[75].mobility.initialX 240m
param *.host[75].mobility.initialY 280m
param *.host[76].mobility.initialX 280m
param *.host[76].mobility.initialY 280m
param *.host[77].mobility.initialX 320m
param *.host[77].mobility.initialY 280m
param *.host[78].mobility.initialX 360m
param *.host[78].mobility.initialY 280m
param *.host[79].mobility.initialX 400m
param *.host[79].mobility.initialY 280m
param *.host[80].mobility.initialX 40m
param *.host[80].mobility.initialY 320m
param *.host[81].mobility.initialX 80m
param *.host[81].mobility.initialY 320m
param *.host[82].mobility.initialX 120m
param *.host[82].mobility.initialY 320m
param *.host[83].mobility.initialX 160m
param *.host[83].mobility.initialY 320m
param *.host[84].mobility.initialX 200m
param *.host[84].mobility.initialY 320m
param *.host[85].mobility.initialX 240m
param *.host[85].mobility.initialY 320m
param *.host[86].mobility.initialX 280m
param *.host[86].mobility.initialY 320m
param *.host[87].mobility.initialX 320m
param *.host[87].mobility.initialY 320m
param *.host[88].mobility.initialX 360m
param *.host[88].mobility.initialY 320m
param *.host[89].mobility.initialX 400m
param *.host[89].mobility.initialY 320m
param *.host[90].mobility.initialX 40m
param *.host[90].mobility.initialY 360m
param *.host[91].mobility.initialX 80m
param *.host[91].mobility.initialY 360m
param *.host[92].mobility.initialX 120m
param *.host[92].mobility.initialY 360m
param *.host[93].mobility.initialX 160m
param *.host[93].mobility.initialY 360m
param *.host[94].mobility.initialX 200m
param *.host[94].mobility.initialY 360m
param *.host[95].mobility.initialX 240m
param *.host[95].mobility.initialY 360m
param *.host[96].mobility.initialX 280m
param *.host[96].mobility.initialY 360m
param *.host[97].mobility.initialX 320m
param *.host[97].mobility.initialY 360m
param *.host[98].mobility.initialX 360m
param *.host[98].mobility.initialY 360m
param *.host[99].mobility.initialX 400m
param *.host[99].mobility.initialY 360m
param **.host[*].numApps 1
param **.host[*].app[0].typename "\"UdpBasicApp\""
param **.host[*].app[0].destAddresses "\"sink[0]\""
param **.host[*].app[0].destPort 1000
param **.host[*].app[0].messageLength 56B
param **.host[*].app[0].sendInterval 55s
param **.host[*].app[0].startTime uniform(0s,90s)
param **.host[*].app[0].stopTime 3550s
param **.sink[*].numApps 1
param **.sink[*].app[0].typename "\"UdpSink\""
param **.sink[*].app[0].localPort 1000
param **.host[*].energyStorage.typename "\"IdealEpEnergyStorage\""
param **.host[*].energyStorage.nominalCapacity 1000J
param **.host[*].energyStorage.initialCapacity 1000J
param **.host[*].wlan[*].radio.energyConsumer.typename "\"StateBasedEpEnergyConsumer\""
param **.Attack[*].energyStorage.typename "\"IdealEpEnergyStorage\""
param **.Attack[*].energyStorage.nominalCapacity 1000J
param **.Attack[*].energyStorage.initialCapacity 1000J
param **.Attack[*].wlan[*].radio.energyConsumer.typename "\"StateBasedEpEnergyConsumer\""
param *.visualizer.dataLinkVisualizer[*].displayLinks true
param *.visualizer.physicalLinkVisualizer[*].displayLinks true
param *.visualizer.mediumVisualizer.displayCommunicationRanges true
param *.visualizer.networkRouteVisualizer.displayRoutes true
param *.visualizer.*.numDataLinkVisualizers 4
param *.visualizer.*.dataLinkVisualizer[*].displayLinks true
param *.visualizer.*.dataLinkVisualizer[*].activityLevel "\"peer\""
param *.visualizer.*.dataLinkVisualizer[0].packetFilter "\"UDP*\""
param *.visualizer.*.dataLinkVisualizer[0].*Color "\"blue\""
param *.visualizer.*.dataLinkVisualizer[1].packetFilter "\"DIO* or DIS* or DAO*\""
param *.visualizer.*.dataLinkVisualizer[1].*Color "\"green\""
param *.visualizer.*.dataLinkVisualizer[2].packetFilter "\"RERR* or ICMP*\""
param *.visualizer.*.dataLinkVisualizer[2].*Color "\"red\""
param *.visualizer.*.dataLinkVisualizer[3].packetFilter "\"UDP*\""
param *.visualizer.*.dataLinkVisualizer[3].*Color "\"orange\""
param **.app[*].packetSent:count.record true
param **.app[*].packetReceived:count.record true
param **.host[*].app[0].recordStats true
param **.sink[*].app[0].recordStats true
param **.endToEndDelay:vector.record true
param **.endToEndDelay:stats.record true
param **.throughput:vector.record true
param **.throughput:stats.record true

vector 0 RplNetwork100.host[63].wlan[0].mac.queue packetPushed:vector(packetBytes) ETV
attr interpolationmode none
attr title "packet pushed, vector(packetBytes)"
vector 1 RplNetwork100.host[63].wlan[0].mac.queue queueLength:vector ETV
attr interpolationmode sample-hold
attr source "count(packetPushed) - count(packetPopped) - count(packetRemoved) - count(packetDropped)"
attr title "queue length, vector"
vector 2 RplNetwork100.host[63].wlan[0].radio radioMode:vector ETV
attr interpolationmode sample-hold
attr source radioModeChanged
attr title "Radio mode, vector"
vector 3 RplNetwork100.host[63].wlan[0].radio.energyConsumer powerConsumption:vector ETV
attr interpolationmode sample-hold
attr source powerConsumptionChanged
attr title "Power consumption, vector"
vector 4 RplNetwork100.host[63].energyStorage residualEnergyCapacity:vector ETV
attr interpolationmode linear
attr source residualEnergyCapacityChanged
attr title "Residual energy capacity, vector"
vector 5 RplNetwork100.host[63].energyStorage powerConsumption:vector ETV
attr interpolationmode sample-hold
attr source powerConsumptionChanged
attr title "Power consumption, vector"
vector 6 RplNetwork100.host[63].wlan[0].radio receptionState:vector ETV
attr interpolationmode sample-hold
attr source receptionStateChanged
attr title "Radio reception state, vector"
vector 7 RplNetwork100.host[63].wlan[0].radio transmissionState:vector ETV
attr interpolationmode sample-hold
attr source transmissionStateChanged
attr title "Radio transmission state, vector"
vector 8 RplNetwork100.host[63].wlan[0].mac.queue packetPopped:vector(packetBytes) ETV
attr interpolationmode none
attr title "packet popped, vector(packetBytes)"
vector 9 RplNetwork100.host[63].wlan[0].mac.queue queueingTime:vector ETV
attr interpolationmode none
attr source queueingTime(packetPopped)
attr title "queueing times, vector"
attr unit s
vector 10 RplNetwork100.host[53].wlan[0].radio receptionState:vector ETV
attr interpolationmode sample-hold
attr source receptionStateChanged
attr title "Radio reception state, vector"
vector 11 RplNetwork100.host[53].wlan[0].radio.energyConsumer powerConsumption:vector ETV
attr interpolationmode sample-hold
attr source powerConsumptionChanged
attr title "Power consumption, vector"
vector 12 RplNetwork100.host[53].energyStorage residualEnergyCapacity:vector ETV
attr interpolationmode linear
attr source residualEnergyCapacityChanged
attr title "Residual energy capacity, vector"
vector 13 RplNetwork100.host[53].energyStorage powerConsumption:vector ETV
attr interpolationmode sample-hold
attr source powerConsumptionChanged
attr title "Power consumption, vector"
vector 14 RplNetwork100.host[62].wlan[0].radio receptionState:vector ETV
attr interpolationmode sample-hold
attr source receptionStateChanged
attr title "Radio reception state, vector"
vector 15 RplNetwork100.host[62].wlan[0].radio.energyConsumer powerConsumption:vector ETV
attr interpolationmode sample-hold
attr source powerConsumptionChanged
attr title "Power consumption, vector"
vector 16 RplNetwork100.host[62].energyStorage residualEnergyCapacity:vector ETV
attr interpolationmode linear
attr source residualEnergyCapacityChanged
attr title "Residual energy capacity, vector"
vector 17 RplNetwork100.host[62].energyStorage powerConsumption:vector ETV
attr interpolationmode sample-hold
attr source powerConsumptionChanged
attr title "Power consumption, vector"
vector 18 RplNetwork100.host[64].wlan[0].radio receptionState:vector ETV
attr interpolationmode sample-hold
attr source receptionStateChanged
attr title "Radio reception state, vector"
vector 19 RplNetwork100.host[64].wlan[0].radio.energyConsumer powerConsumption:vector ETV
attr interpolationmode sample-hold
attr source powerConsumptionChanged
attr title "Power consumption, vector"
vector 20 RplNetwork100.host[64].energyStorage residualEnergyCapacity:vector ETV
attr interpolationmode linear
attr source residualEnergyCapacityChanged
attr title "Residual energy capacity, vector"
vector 21 RplNetwork100.host[64].energyStorage powerConsumption:vector ETV
attr interpolationmode sample-hold
attr source powerConsumptionChanged
attr title "Power consumption, vector"
vector 22 RplNetwork100.host[73].wlan[0].radio receptionState:vector ETV
attr interpolationmode sample-hold
attr source receptionStateChanged
attr title "Radio reception state, vector"
vector 23 RplNetwork100.host[73].wlan[0].radio.energyConsumer powerConsumption:vector ETV
attr interpolationmode sample-hold
attr source powerConsumptionChanged
attr title "Power consumption, vector"
vector 24 RplNetwork100.host[73].energyStorage residualEnergyCapacity:vector ETV
attr interpolationmode linear
attr source residualEnergyCapacityChanged
attr title "Residual energy capacity, vector"
vector 25 RplNetwork100.host[73].energyStorage powerConsumption:vector ETV
attr interpolationmode sample-hold
attr source powerConsumptionChanged
attr title "Power consumption, vector"
vector 26 RplNetwork100.sink[0].wlan[0].radio receptionState:vector ETV
attr interpolationmode sample-hold
attr source receptionStateChanged
attr title "Radio reception state, vector"
vector 27 RplNetwork100.host[52].wlan[0].radio receptionState:vector ETV
attr interpolationmode sample-hold
attr source receptionStateChanged
attr title "Radio reception state, vector"
vector 28 RplNetwork100.host[52].wlan[0].radio.energyConsumer powerConsumption:vector ETV
attr interpolationmode sample-hold
attr source powerConsumptionChanged
attr title "Power consumption, vector"
vector 29 RplNetwork100.host[52].energyStorage residualEnergyCapacity:vector ETV
attr interpolationmode linear
attr source residualEnergyCapacityChanged
attr title "Residual energy capacity, vector"
vector 30 RplNetwork100.host[52].energyStorage powerConsumption:vector ETV
attr interpolationmode sample-hold
attr source powerConsumptionChanged
attr title "Power consumption, vector"
vector 31 RplNetwork100.host[72].wlan[0].radio receptionState:vector ETV
attr interpolationmode sample-hold
attr source receptionStateChanged
attr title "Radio reception state, vector"
vector 32 RplNetwork100.host[72].wlan[0].radio.energyConsumer powerConsumption:vector ETV
attr interpolationmode sample-hold
attr source powerConsumptionChanged
attr title "Power consumption, vector"
vector 33 RplNetwork100.host[72].energyStorage residualEnergyCapacity:vector ETV
attr interpolationmode linear
attr source residualEnergyCapacityChanged
attr title "Residual energy capacity, vector"
vector 34 RplNetwork100.host[72].energyStorage powerConsumption:vector ETV
attr interpolationmode sample-hold
attr source powerConsumptionChanged
attr title "Power consumption, vector"
vector 35 RplNetwork100.host[74].wlan[0].radio receptionState:vector ETV
attr interpolationmode sample-hold
attr source receptionStateChanged
attr title "Radio reception state, vector"
vector 36 RplNetwork100.host[74].wlan[0].radio.energyConsumer powerConsumption:vector ETV
attr interpolationmode sample-hold
attr source powerConsumptionChanged
attr title "Power consumption, vector"
vector 37 RplNetwork100.host[74].energyStorage residualEnergyCapacity:vector ETV
attr interpolationmode linear
attr source residualEnergyCapacityChanged
attr title "Residual energy capacity, vector"
vector 38 RplNetwork100.host[74].energyStorage powerConsumption:vector ETV
attr interpolationmode sample-hold
attr source powerConsumptionChanged
attr title "Power consumption, vector"
vector 39 RplNetwork100.host[42].wlan[0].radio.energyConsumer powerConsumption:vector ETV
attr interpolationmode sample-hold
attr source powerConsumptionChanged
attr title "Power consumption, vector"
vector 40 RplNetwork100.host[42].energyStorage residualEnergyCapacity:vector ETV
attr interpolationmode linear
attr source residualEnergyCapacityChanged
attr title "Residual energy capacity, vector"
vector 41 RplNetwork100.host[42].energyStorage powerConsumption:vector ETV
attr interpolationmode sample-hold
attr source powerConsumptionChanged
attr title "Power consumption, vector"
vector 42 RplNetwork100.host[44].wlan[0].radio.energyConsumer powerConsumption:vector ETV
attr interpolationmode sample-hold
attr source powerConsumptionChanged
attr title "Power consumption, vector"
vector 43 RplNetwork100.host[44].energyStorage residualEnergyCapacity:vector ETV
attr interpolationmode linear
attr source residualEnergyCapacityChanged
attr title "Residual energy capacity, vector"
vector 44 RplNetwork100.host[44].energyStorage powerConsumption:vector ETV
attr interpolationmode sample-hold
attr source powerConsumptionChanged
attr title "Power consumption, vector"
vector 45 RplNetwork100.host[33].wlan[0].radio.energyConsumer powerConsumption:vector ETV
attr interpolationmode sample-hold
attr source powerConsumptionChanged
attr title "Power consumption, vector"
vector 46 RplNetwork100.host[33].energyStorage residualEnergyCapacity:vector ETV
attr interpolationmode linear
attr source residualEnergyCapacityChanged
attr title "Residual energy capacity, vector"
vector 47 RplNetwork100.host[33].energyStorage powerConsumption:vector ETV
attr interpolationmode sample-hold
attr source powerConsumptionChanged
attr title "Power consumption, vector"
vector 48 RplNetwork100.host[47].app[0] packetSent:vector(packetBytes) ETV
attr interpolationmode none
attr source packetSent
attr title "packets sent, vector(packetBytes)"
vector 49 RplNetwork100.host[47].udp packetSent:vector(packetBytes) ETV
attr interpolationmode none
attr source packetSent
attr title "packets sent, vector(packetBytes)"
vector 50 RplNetwork100.host[47].wlan[0].mac.queue packetPushed:vector(packetBytes) ETV
attr interpolationmode none
attr title "packet pushed, vector(packetBytes)"
vector 51 RplNetwork100.host[47].wlan[0].mac.queue queueLength:vector ETV
attr interpolationmode sample-hold
attr source "count(packetPushed) - count(packetPopped) - count(packetRemoved) - count(packetDropped)"
attr title "queue length, vector"
vector 52 RplNetwork100.host[47].wlan[0].radio radioMode:vector ETV
attr interpolationmode sample-hold
attr source radioModeChanged
attr title "Radio mode, vector"
vector 53 RplNetwork100.host[47].wlan[0].radio.energyConsumer powerConsumption:vector ETV
attr interpolationmode sample-hold
attr source powerConsumptionChanged
attr title "Power consumption, vector"
vector 54 RplNetwork100.host[47].energyStorage residualEnergyCapacity:vector ETV
attr interpolationmode linear
attr source residualEnergyCapacityChanged
attr title "Residual energy capacity, vector"
vector 55 RplNetwork100.host[47].energyStorage powerConsumption:vector ETV
attr interpolationmode sample-hold
attr source powerConsumptionChanged
attr title "Power consumption, vector"
vector 56 RplNetwork100.host[47].wlan[0].radio receptionState:vector ETV
attr interpolationmode sample-hold
attr source receptionStateChanged
attr title "Radio reception state, vector"
vector 57 RplNetwork100.host[47].wlan[0].radio transmissionState:vector ETV
attr interpolationmode sample-hold
attr source transmissionStateChanged
attr title "Radio transmission state, vector"
vector 58 RplNetwork100.host[47].wlan[0].mac.queue packetPopped:vector(packetBytes) ETV
attr interpolationmode none
attr title "packet popped, vector(packetBytes)"
vector 59 RplNetwork100.host[47].wlan[0].mac.queue queueingTime:vector ETV
attr interpolationmode none
attr source queueingTime(packetPopped)
attr title "queueing times, vector"
attr unit s
vector 60 RplNetwork100.host[37].wlan[0].radio receptionState:vector ETV
attr interpolationmode sample-hold
attr source receptionStateChanged
attr title "Radio reception state, vector"
vector 61 RplNetwork100.host[37].wlan[0].radio.energyConsumer powerConsumption:vector ETV
attr interpolationmode sample-hold
attr source powerConsumptionChanged
attr title "Power consumption, vector"
vector 62 RplNetwork100.host[37].energyStorage residualEnergyCapacity:vector ETV
attr interpolationmode linear
attr source residualEnergyCapacityChanged
attr title "Residual energy capacity, vector"
vector 63 RplNetwork100.host[37].energyStorage powerConsumption:vector ETV
attr interpolationmode sample-hold
attr source powerConsumptionChanged
attr title "Power consumption, vector"
vector 64 RplNetwork100.host[46].wlan[0].radio receptionState:vector ETV
attr interpolationmode sample-hold
attr source receptionStateChanged
attr title "Radio reception state, vector"
vector 65 RplNetwork100.host[46].wlan[0].radio.energyConsumer powerConsumption:vector ETV
attr interpolationmode sample-hold
attr source powerConsumptionChanged
attr title "Power consumption, vector"
vector 66 RplNetwork100.host[46].energyStorage residualEnergyCapacity:vector ETV
attr interpolationmode linear
attr source residualEnergyCapacityChanged
attr title "Residual energy capacity, vector"
vector 67 RplNetwork100.host[46].energyStorage powerConsumption:vector ETV
attr interpolationmode sample-hold
attr source powerConsumptionChanged
attr title "Power consumption, vector"
vector 68 RplNetwork100.host[48].wlan[0].radio receptionState:vector ETV
attr interpolationmode sample-hold
attr source receptionStateChanged
attr title "Radio reception state, vector"
vector 69 RplNetwork100.host[48].wlan[0].radio.energyConsumer powerConsumption:vector ETV
attr interpolationmode sample-hold
attr source powerConsumptionChanged
attr title "Power consumption, vector"
vector 70 RplNetwork100.host[48].energyStorage residualEnergyCapacity:vector ETV
attr interpolationmode linear
attr source residualEnergyCapacityChanged
attr title "Residual energy capacity, vector"
vector 71 RplNetwork100.host[48].energyStorage powerConsumption:vector ETV
attr interpolationmode sample-hold
attr source powerConsumptionChanged
attr title "Power consumption, vector"
vector 72 RplNetwork100.host[57].wlan[0].radio receptionState:vector ETV
attr interpolationmode sample-hold
attr source receptionStateChanged
attr title "Radio reception state, vector"
vector 73 RplNetwork100.host[57].wlan[0].radio.energyConsumer powerConsumption:vector ETV
attr interpolationmode sample-hold
attr source powerConsumptionChanged
attr title "Power consumption, vector"
vector 74 RplNetwork100.host[57].energyStorage residualEnergyCapacity:vector ETV
attr interpolationmode linear
attr source residualEnergyCapacityChanged
attr title "Residual energy capacity, vector"
vector 75 RplNetwork100.host[57].energyStorage powerConsumption:vector ETV
attr interpolationmode sample-hold
attr source powerConsumptionChanged
attr title "Power consumption, vector"
vector 76 RplNetwork100.host[36].wlan[0].radio receptionState:vector ETV
attr interpolationmode sample-hold
attr source receptionStateChanged
attr title "Radio reception state, vector"
vector 77 RplNetwork100.host[36].wlan[0].radio.energyConsumer powerConsumption:vector ETV
attr interpolationmode sample-hold
attr source powerConsumptionChanged
attr title "Power consumption, vector"
vector 78 RplNetwork100.host[36].energyStorage residualEnergyCapacity:vector ETV
attr interpolationmode linear
attr source residualEnergyCapacityChanged
attr title "Residual energy capacity, vector"
vector 79 RplNetwork100.host[36].energyStorage powerConsumption:vector ETV
attr interpolationmode sample-hold
attr source powerConsumptionChanged
attr title "Power consumption, vector"
vector 80 RplNetwork100.host[38].wlan[0].radio receptionState:vector ETV
attr interpolationmode sample-hold
attr source receptionStateChanged
attr title "Radio reception state, vector"
vector 81 RplNetwork100.host[38].wlan[0].radio.energyConsumer powerConsumption:vector ETV
attr interpolationmode sample-hold
attr source powerConsumptionChanged
attr title "Power consumption, vector"
vector 82 RplNetwork100.host[38].energyStorage residualEnergyCapacity:vector ETV
attr interpolationmode linear
attr source residualEnergyCapacityChanged
attr title "Residual energy capacity, vector"
vector 83 RplNetwork100.host[38].energyStorage powerConsumption:vector ETV
attr interpolationmode sample-hold
attr source powerConsumptionChanged
attr title "Power consumption, vector"
vector 84 RplNetwork100.host[56].wlan[0].radio receptionState:vector ETV
attr interpolationmode sample-hold
attr source receptionStateChanged
attr title "Radio reception state, vector"
vector 85 RplNetwork100.host[56].wlan[0].radio.energyConsumer powerConsumption:vector ETV
attr interpolationmode sample-hold
attr source powerConsumptionChanged
attr title "Power consumption, vector"
vector 86 RplNetwork100.host[56].energyStorage residualEnergyCapacity:vector ETV
attr interpolationmode linear
attr source residualEnergyCapacityChanged
attr title "Residual energy capacity, vector"
vector 87 RplNetwork100.host[56].energyStorage powerConsumption:vector ETV
attr interpolationmode sample-hold
attr source powerConsumptionChanged
attr title "Power consumption, vector"
vector 88 RplNetwork100.host[58].wlan[0].radio receptionState:vector ETV
attr interpolationmode sample-hold
attr source receptionStateChanged
attr title "Radio reception state, vector"
vector 89 RplNetwork100.host[58].wlan[0].radio.energyConsumer powerConsumption:vector ETV
attr interpolationmode sample-hold
attr source powerConsumptionChanged
attr title "Power consumption, vector"
vector 90 RplNetwork100.host[58].energyStorage residualEnergyCapacity:vector ETV
attr interpolationmode linear
attr source residualEnergyCapacityChanged
attr title "Residual energy capacity, vector"
vector 91 RplNetwork100.host[58].energyStorage powerConsumption:vector ETV
attr interpolationmode sample-hold
attr source powerConsumptionChanged
attr title "Power consumption, vector"
vector 92 RplNetwork100.host[37].wlan[0].mac packetDropNotAddressToUs:vector(packetBytes) ETV
attr interpolationmode none
attr source packetDropReasonIsNotAddressedToUs(packetDropped)
attr title "packet drop: not addressed to us, vector(packetBytes)"
vector 93 RplNetwork100.host[46].wlan[0].mac packetDropNotAddressToUs:vector(packetBytes) ETV
attr interpolationmode none
attr source packetDropReasonIsNotAddressedToUs(packetDropped)
attr title "packet drop: not addressed to us, vector(packetBytes)"
vector 94 RplNetwork100.host[48].wlan[0].mac packetDropNotAddressToUs:vector(packetBytes) ETV
attr interpolationmode none
attr source packetDropReasonIsNotAddressedToUs(packetDropped)
attr title "packet drop: not addressed to us, vector(packetBytes)"
vector 95 RplNetwork100.host[57].wlan[0].radio radioMode:vector ETV
attr interpolationmode sample-hold
attr source radioModeChanged
attr title "Radio mode, vector"
vector 96 RplNetwork100.host[57].wlan[0].radio transmissionState:vector ETV
attr interpolationmode sample-hold
attr source transmissionStateChanged
attr title "Radio transmission state, vector"
vector 97 RplNetwork100.host[67].wlan[0].radio receptionState:vector ETV
attr interpolationmode sample-hold
attr source receptionStateChanged
attr title "Radio reception state, vector"
vector 98 RplNetwork100.host[67].wlan[0].radio.energyConsumer powerConsumption:vector ETV
attr interpolationmode sample-hold
attr source powerConsumptionChanged
attr title "Power consumption, vector"
vector 99 RplNetwork100.host[67].energyStorage residualEnergyCapacity:vector ETV
attr interpolationmode linear
attr source residualEnergyCapacityChanged
attr title "Residual energy capacity, vector"
vector 100 RplNetwork100.host[67].energyStorage powerConsumption:vector ETV
attr interpolationmode sample-hold
attr source powerConsumptionChanged
attr title "Power consumption, vector"
vector 101 RplNetwork100.host[66].wlan[0].radio receptionState:vector ETV
attr interpolationmode sample-hold
attr source receptionStateChanged
attr title "Radio reception state, vector"
vector 102 RplNetwork100.host[66].wlan[0].radio.energyConsumer powerConsumption:vector ETV
attr interpolationmode sample-hold
attr source powerConsumptionChanged
attr title "Power consumption, vector"
vector 103 RplNetwork100.host[66].energyStorage residualEnergyCapacity:vector ETV
attr interpolationmode linear
attr source residualEnergyCapacityChanged
attr title "Residual energy capacity, vector"
vector 104 RplNetwork100.host[66].energyStorage powerConsumption:vector ETV
attr interpolationmode sample-hold
attr source powerConsumptionChanged
attr title "Power consumption, vector"
vector 105 RplNetwork100.host[68].wlan[0].radio receptionState:vector ETV
attr interpolationmode sample-hold
attr source receptionStateChanged
attr title "Radio reception state, vector"
vector 106 RplNetwork100.host[68].wlan[0].radio.energyConsumer powerConsumption:vector ETV
attr interpolationmode sample-hold
attr source powerConsumptionChanged
attr title "Power consumption, vector"
vector 107 RplNetwork100.host[68].energyStorage residualEnergyCapacity:vector ETV
attr interpolationmode linear
attr source residualEnergyCapacityChanged
attr title "Residual energy capacity, vector"
vector 108 RplNetwork100.host[68].energyStorage powerConsumption:vector ETV
attr interpolationmode sample-hold
attr source powerConsumptionChanged
attr title "Power consumption, vector"
vector 109 RplNetwork100.host[56].wlan[0].mac packetDropNotAddressToUs:vector(packetBytes) ETV
attr interpolationmode none
attr source packetDropReasonIsNotAddressedToUs(packetDropped)
attr title "packet drop: not addressed to us, vector(packetBytes)"
vector 110 RplNetwork100.host[58].wlan[0].mac packetDropNotAddressToUs:vector(packetBytes) ETV
attr interpolationmode none
attr source packetDropReasonIsNotAddressedToUs(packetDropped)
attr title "packet drop: not addressed to us, vector(packetBytes)"
vector 111 RplNetwork100.host[67].wlan[0].mac packetDropNotAddressToUs:vector(packetBytes) ETV
attr interpolationmode none
attr source packetDropReasonIsNotAddressedToUs(packetDropped)
attr title "packet drop: not addressed to us, vector(packetBytes)"
vector 112 RplNetwork100.host[33].app[0] packetSent:vector(packetBytes) ETV
attr interpolationmode none
attr source packetSent
attr title "packets sent, vector(packetBytes)"
vector 113 RplNetwork100.host[33].udp packetSent:vector(packetBytes) ETV
attr interpolationmode none
attr source packetSent
attr title "packets sent, vector(packetBytes)"
vector 114 RplNetwork100.host[33].wlan[0].mac.queue packetPushed:vector(packetBytes) ETV
attr interpolationmode none
attr title "packet pushed, vector(packetBytes)"
vector 115 RplNetwork100.host[33].wlan[0].mac.queue queueLength:vector ETV
attr interpolationmode sample-hold
attr source "count(packetPushed) - count(packetPopped) - count(packetRemoved) - count(packetDropped)"
attr title "queue length, vector"
vector 116 RplNetwork100.host[33].wlan[0].radio radioMode:vector ETV
attr interpolationmode sample-hold
attr source radioModeChanged
attr title "Radio mode, vector"
vector 117 RplNetwork100.host[33].wlan[0].radio receptionState:vector ETV
attr interpolationmode sample-hold
attr source receptionStateChanged
attr title "Radio reception state, vector"
vector 118 RplNetwork100.host[33].wlan[0].radio transmissionState:vector ETV
attr interpolationmode sample-hold
attr source transmissionStateChanged
attr title "Radio transmission state, vector"
vector 119 RplNetwork100.host[33].wlan[0].mac.queue packetPopped:vector(packetBytes) ETV
attr interpolationmode none
attr title "packet popped, vector(packetBytes)"
vector 120 RplNetwork100.host[33].wlan[0].mac.queue queueingTime:vector ETV
attr interpolationmode none
attr source queueingTime(packetPopped)
attr title "queueing times, vector"
attr unit s
vector 121 RplNetwork100.host[23].wlan[0].radio receptionState:vector ETV
attr interpolationmode sample-hold
attr source receptionStateChanged
attr title "Radio reception state, vector"
vector 122 RplNetwork100.host[23].wlan[0].radio.energyConsumer powerConsumption:vector ETV
attr interpolationmode sample-hold
attr source powerConsumptionChanged
attr title "Power consumption, vector"
vector 123 RplNetwork100.host[23].energyStorage residualEnergyCapacity:vector ETV
attr interpolationmode linear
attr source residualEnergyCapacityChanged
attr title "Residual energy capacity, vector"
vector 124 RplNetwork100.host[23].energyStorage powerConsumption:vector ETV
attr interpolationmode sample-hold
attr source powerConsumptionChanged
attr title "Power consumption, vector"
vector 125 RplNetwork100.host[32].wlan[0].radio receptionState:vector ETV
attr interpolationmode sample-hold
attr source receptionStateChanged
attr title "Radio reception state, vector"
vector 126 RplNetwork100.host[32].wlan[0].radio.energyConsumer powerConsumption:vector ETV
attr interpolationmode sample-hold
attr source powerConsumptionChanged
attr title "Power consumption, vector"
vector 127 RplNetwork100.host[32].energyStorage residualEnergyCapacity:vector ETV
attr interpolationmode linear
attr source residualEnergyCapacityChanged
attr title "Residual energy capacity, vector"
vector 128 RplNetwork100.host[32].energyStorage powerConsumption:vector ETV
attr interpolationmode sample-hold
attr source powerConsumptionChanged
attr title "Power consumption, vector"
vector 129 RplNetwork100.host[34].wlan[0].radio receptionState:vector ETV
attr interpolationmode sample-hold
attr source receptionStateChanged
attr title "Radio reception state, vector"
vector 130 RplNetwork100.host[34].wlan[0].radio.energyConsumer powerConsumption:vector ETV
attr interpolationmode sample-hold
attr source powerConsumptionChanged
attr title "Power consumption, vector"
vector 131 RplNetwork100.host[34].energyStorage residualEnergyCapacity:vector ETV
attr interpolationmode linear
attr source residualEnergyCapacityChanged
attr title "Residual energy capacity, vector"
vector 132 RplNetwork100.host[34].energyStorage powerConsumption:vector ETV
attr interpolationmode sample-hold
attr source powerConsumptionChanged
attr title "Power consumption, vector"
vector 133 RplNetwork100.host[43].wlan[0].radio receptionState:vector ETV
attr interpolationmode sample-hold
attr source receptionStateChanged
attr title "Radio reception state, vector"
vector 134 RplNetwork100.host[43].wlan[0].radio.energyConsumer powerConsumption:vector ETV
attr interpolationmode sample-hold
attr source powerConsumptionChanged
attr title "Power consumption, vector"
vector 135 RplNetwork100.host[43].energyStorage residualEnergyCapacity:vector ETV
attr interpolationmode linear
attr source residualEnergyCapacityChanged
attr title "Residual energy capacity, vector"
vector 136 RplNetwork100.host[43].energyStorage powerConsumption:vector ETV
attr interpolationmode sample-hold
attr source powerConsumptionChanged
attr title "Power consumption, vector"
vector 137 RplNetwork100.host[22].wlan[0].radio receptionState:vector ETV
attr interpolationmode sample-hold
attr source receptionStateChanged
attr title "Radio reception state, vector"
vector 138 RplNetwork100.host[22].wlan[0].radio.energyConsumer powerConsumption:vector ETV
attr interpolationmode sample-hold
attr source powerConsumptionChanged
attr title "Power consumption, vector"
vector 139 RplNetwork100.host[22].energyStorage residualEnergyCapacity:vector ETV
attr interpolationmode linear
attr source residualEnergyCapacityChanged
attr title "Residual energy capacity, vector"
vector 140 RplNetwork100.host[22].energyStorage powerConsumption:vector ETV
attr interpolationmode sample-hold
attr source powerConsumptionChanged
attr title "Power consumption, vector"
vector 141 RplNetwork100.host[24].wlan[0].radio receptionState:vector ETV
attr interpolationmode sample-hold
attr source receptionStateChanged
attr title "Radio reception state, vector"
vector 142 RplNetwork100.host[24].wlan[0].radio.energyConsumer powerConsumption:vector ETV
attr interpolationmode sample-hold
attr source powerConsumptionChanged
attr title "Power consumption, vector"
vector 143 RplNetwork100.host[24].energyStorage residualEnergyCapacity:vector ETV
attr interpolationmode linear
attr source residualEnergyCapacityChanged
attr title "Residual energy capacity, vector"
vector 144 RplNetwork100.host[24].energyStorage powerConsumption:vector ETV
attr interpolationmode sample-hold
attr source powerConsumptionChanged
attr title "Power consumption, vector"
vector 145 RplNetwork100.host[42].wlan[0].radio receptionState:vector ETV
attr interpolationmode sample-hold
attr source receptionStateChanged
attr title "Radio reception state, vector"
vector 146 RplNetwork100.host[44].wlan[0].radio receptionState:vector ETV
attr interpolationmode sample-hold
attr source receptionStateChanged
attr title "Radio reception state, vector"
vector 147 RplNetwork100.host[23].wlan[0].mac packetDropNotAddressToUs:vector(packetBytes) ETV
attr interpolationmode none
attr source packetDropReasonIsNotAddressedToUs(packetDropped)
attr title "packet drop: not addressed to us, vector(packetBytes)"
vector 148 RplNetwork100.host[32].wlan[0].mac packetDropNotAddressToUs:vector(packetBytes) ETV
attr interpolationmode none
attr source packetDropReasonIsNotAddressedToUs(packetDropped)
attr title "packet drop: not addressed to us, vector(packetBytes)"
vector 149 RplNetwork100.host[34].wlan[0].mac packetDropNotAddressToUs:vector(packetBytes) ETV
attr interpolationmode none
attr source packetDropReasonIsNotAddressedToUs(packetDropped)
attr title "packet drop: not addressed to us, vector(packetBytes)"
vector 150 RplNetwork100.host[43].wlan[0].radio radioMode:vector ETV
attr interpolationmode sample-hold
attr source radioModeChanged
attr title "Radio mode, vector"
vector 151 RplNetwork100.host[43].wlan[0].radio transmissionState:vector ETV
attr interpolationmode sample-hold
attr source transmissionStateChanged
attr title "Radio transmission state, vector"
vector 152 RplNetwork100.host[42].wlan[0].mac packetDropNotAddressToUs:vector(packetBytes) ETV
attr interpolationmode none
attr source packetDropReasonIsNotAddressedToUs(packetDropped)
attr title "packet drop: not addressed to us, vector(packetBytes)"
vector 153 RplNetwork100.host[44].wlan[0].mac packetDropNotAddressToUs:vector(packetBytes) ETV
attr interpolationmode none
attr source packetDropReasonIsNotAddressedToUs(packetDropped)
attr title "packet drop: not addressed to us, vector(packetBytes)"
vector 154 RplNetwork100.host[53].wlan[0].mac packetDropNotAddressToUs:vector(packetBytes) ETV
attr interpolationmode none
attr source packetDropReasonIsNotAddressedToUs(packetDropped)
attr title "packet drop: not addressed to us, vector(packetBytes)"
vector 155 RplNetwork100.host[74].app[0] packetSent:vector(packetBytes) ETV
attr interpolationmode none
attr source packetSent
attr title "packets sent, vector(packetBytes)"
vector 156 RplNetwork100.host[74].udp packetSent:vector(packetBytes) ETV
attr interpolationmode none
attr source packetSent
attr title "packets sent, vector(packetBytes)"
vector 157 RplNetwork100.host[74].wlan[0].mac.queue packetPushed:vector(packetBytes) ETV
attr interpolationmode none
attr title "packet pushed, vector(packetBytes)"
vector 158 RplNetwork100.host[74].wlan[0].mac.queue queueLength:vector ETV
attr interpolationmode sample-hold
attr source "count(packetPushed) - count(packetPopped) - count(packetRemoved) - count(packetDropped)"
attr title "queue length, vector"
vector 159 RplNetwork100.host[74].wlan[0].radio radioMode:vector ETV
attr interpolationmode sample-hold
attr source radioModeChanged
attr title "Radio mode, vector"
vector 160 RplNetwork100.host[74].wlan[0].radio transmissionState:vector ETV
attr interpolationmode sample-hold
attr source transmissionStateChanged
attr title "Radio transmission state, vector"
vector 161 RplNetwork100.host[74].wlan[0].mac.queue packetPopped:vector(packetBytes) ETV
attr interpolationmode none
attr title "packet popped, vector(packetBytes)"
vector 162 RplNetwork100.host[74].wlan[0].mac.queue queueingTime:vector ETV
attr interpolationmode none
attr source queueingTime(packetPopped)
attr title "queueing times, vector"
attr unit s
vector 163 RplNetwork100.host[75].wlan[0].radio receptionState:vector ETV
attr interpolationmode sample-hold
attr source receptionStateChanged
attr title "Radio reception state, vector"
vector 164 RplNetwork100.host[75].wlan[0].radio.energyConsumer powerConsumption:vector ETV
attr interpolationmode sample-hold
attr source powerConsumptionChanged
attr title "Power consumption, vector"
vector 165 RplNetwork100.host[75].energyStorage residualEnergyCapacity:vector ETV
attr interpolationmode linear
attr source residualEnergyCapacityChanged
attr title "Residual energy capacity, vector"
vector 166 RplNetwork100.host[75].energyStorage powerConsumption:vector ETV
attr interpolationmode sample-hold
attr source powerConsumptionChanged
attr title "Power consumption, vector"
vector 167 RplNetwork100.host[84].wlan[0].radio receptionState:vector ETV
attr interpolationmode sample-hold
attr source receptionStateChanged
attr title "Radio reception state, vector"
vector 168 RplNetwork100.host[84].wlan[0].radio.energyConsumer powerConsumption:vector ETV
attr interpolationmode sample-hold
attr source powerConsumptionChanged
attr title "Power consumption, vector"
vector 169 RplNetwork100.host[84].energyStorage residualEnergyCapacity:vector ETV
attr interpolationmode linear
attr source residualEnergyCapacityChanged
attr title "Residual energy capacity, vector"
vector 170 RplNetwork100.host[84].energyStorage powerConsumption:vector ETV
attr interpolationmode sample-hold
attr source powerConsumptionChanged
attr title "Power consumption, vector"
vector 171 RplNetwork100.host[65].wlan[0].radio receptionState:vector ETV
attr interpolationmode sample-hold
attr source receptionStateChanged
attr title "Radio reception state, vector"
vector 172 RplNetwork100.host[65].wlan[0].radio.energyConsumer powerConsumption:vector ETV
attr interpolationmode sample-hold
attr source powerConsumptionChanged
attr title "Power consumption, vector"
vector 173 RplNetwork100.host[65].energyStorage residualEnergyCapacity:vector ETV
attr interpolationmode linear
attr source residualEnergyCapacityChanged
attr title "Residual energy capacity, vector"
vector 174 RplNetwork100.host[65].energyStorage powerConsumption:vector ETV
attr interpolationmode sample-hold
attr source powerConsumptionChanged
attr title "Power consumption, vector"
vector 175 RplNetwork100.host[83].wlan[0].radio receptionState:vector ETV
attr interpolationmode sample-hold
attr source receptionStateChanged
attr title "Radio reception state, vector"
vector 176 RplNetwork100.host[83].wlan[0].radio.energyConsumer powerConsumption:vector ETV
attr interpolationmode sample-hold
attr source powerConsumptionChanged
attr title "Power consumption, vector"
vector 177 RplNetwork100.host[83].energyStorage residualEnergyCapacity:vector ETV
attr interpolationmode linear
attr source residualEnergyCapacityChanged
attr title "Residual energy capacity, vector"
vector 178 RplNetwork100.host[83].energyStorage powerConsumption:vector ETV
attr interpolationmode sample-hold
attr source powerConsumptionChanged
attr title "Power consumption, vector"
vector 179 RplNetwork100.host[85].wlan[0].radio receptionState:vector ETV
attr interpolationmode sample-hold
attr source receptionStateChanged
attr title "Radio reception state, vector"
vector 180 RplNetwork100.host[85].wlan[0].radio.energyConsumer powerConsumption:vector ETV
attr interpolationmode sample-hold
attr source powerConsumptionChanged
attr title "Power consumption, vector"
vector 181 RplNetwork100.host[85].energyStorage residualEnergyCapacity:vector ETV
attr interpolationmode linear
attr source residualEnergyCapacityChanged
attr title "Residual energy capacity, vector"
vector 182 RplNetwork100.host[85].energyStorage powerConsumption:vector ETV
attr interpolationmode sample-hold
attr source powerConsumptionChanged
attr title "Power consumption, vector"
vector 183 RplNetwork100.host[64].wlan[0].radio radioMode:vector ETV
attr interpolationmode sample-hold
attr source radioModeChanged
attr title "Radio mode, vector"
vector 184 RplNetwork100.host[64].wlan[0].radio transmissionState:vector ETV
attr interpolationmode sample-hold
attr source transmissionStateChanged
attr title "Radio transmission state, vector"
vector 185 RplNetwork100.host[73].wlan[0].mac packetDropNotAddressToUs:vector(packetBytes) ETV
attr interpolationmode none
attr source packetDropReasonIsNotAddressedToUs(packetDropped)
attr title "packet drop: not addressed to us, vector(packetBytes)"
vector 186 RplNetwork100.host[75].wlan[0].mac packetDropNotAddressToUs:vector(packetBytes) ETV
attr interpolationmode none
attr source packetDropReasonIsNotAddressedToUs(packetDropped)
attr title "packet drop: not addressed to us, vector(packetBytes)"
vector 187 RplNetwork100.host[84].wlan[0].mac packetDropNotAddressToUs:vector(packetBytes) ETV
attr interpolationmode none
attr source packetDropReasonIsNotAddressedToUs(packetDropped)
attr title "packet drop: not addressed to us, vector(packetBytes)"
vector 188 RplNetwork100.host[55].wlan[0].radio receptionState:vector ETV
attr interpolationmode sample-hold
attr source receptionStateChanged
attr title "Radio reception state, vector"
vector 189 RplNetwork100.host[55].wlan[0].radio.energyConsumer powerConsumption:vector ETV
attr interpolationmode sample-hold
attr source powerConsumptionChanged
attr title "Power consumption, vector"
vector 190 RplNetwork100.host[55].energyStorage residualEnergyCapacity:vector ETV
attr interpolationmode linear
attr source residualEnergyCapacityChanged
attr title "Residual energy capacity, vector"
vector 191 RplNetwork100.host[55].energyStorage powerConsumption:vector ETV
attr interpolationmode sample-hold
attr source powerConsumptionChanged
attr title "Power consumption, vector"
vector 192 RplNetwork100.sink[0].wlan[0].mac packetDropNotAddressToUs:vector(packetBytes) ETV
attr interpolationmode none
attr source packetDropReasonIsNotAddressedToUs(packetDropped)
attr title "packet drop: not addressed to us, vector(packetBytes)"
vector 193 RplNetwork100.host[63].wlan[0].mac packetDropNotAddressToUs:vector(packetBytes) ETV
attr interpolationmode none
attr source packetDropReasonIsNotAddressedToUs(packetDropped)
attr title "packet drop: not addressed to us, vector(packetBytes)"
vector 194 RplNetwork100.host[65].wlan[0].mac packetDropNotAddressToUs:vector(packetBytes) ETV
attr interpolationmode none
attr source packetDropReasonIsNotAddressedToUs(packetDropped)
attr title "packet drop: not addressed to us, vector(packetBytes)"
vector 195 RplNetwork100.host[53].wlan[0].mac.queue packetPushed:vector(packetBytes) ETV
attr interpolationmode none
attr title "packet pushed, vector(packetBytes)"
vector 196 RplNetwork100.host[53].wlan[0].mac.queue queueLength:vector ETV
attr interpolationmode sample-hold
attr source "count(packetPushed) - count(packetPopped) - count(packetRemoved) - count(packetDropped)"
attr title "queue length, vector"
vector 197 RplNetwork100.host[53].wlan[0].radio radioMode:vector ETV
attr interpolationmode sample-hold
attr source radioModeChanged
attr title "Radio mode, vector"
vector 198 RplNetwork100.host[53].wlan[0].radio transmissionState:vector ETV
attr interpolationmode sample-hold
attr source transmissionStateChanged
attr title "Radio transmission state, vector"
vector 199 RplNetwork100.host[53].wlan[0].mac.queue packetPopped:vector(packetBytes) ETV
attr interpolationmode none
attr title "packet popped, vector(packetBytes)"
vector 200 RplNetwork100.host[53].wlan[0].mac.queue queueingTime:vector ETV
attr interpolationmode none
attr source queueingTime(packetPopped)
attr title "queueing times, vector"
attr unit s
vector 201 RplNetwork100.host[54].app[0] packetSent:vector(packetBytes) ETV
attr interpolationmode none
attr source packetSent
attr title "packets sent, vector(packetBytes)"
vector 202 RplNetwork100.host[54].udp packetSent:vector(packetBytes) ETV
attr interpolationmode none
attr source packetSent
attr title "packets sent, vector(packetBytes)"
vector 203 RplNetwork100.host[53].app[0] packetSent:vector(packetBytes) ETV
attr interpolationmode none
attr source packetSent
attr title "packets sent, vector(packetBytes)"
vector 204 RplNetwork100.host[53].udp packetSent:vector(packetBytes) ETV
attr interpolationmode none
attr source packetSent
attr title "packets sent, vector(packetBytes)"
vector 205 RplNetwork100.sink[0].wlan[0].radio radioMode:vector ETV
attr interpolationmode sample-hold
attr source radioModeChanged
attr title "Radio mode, vector"
vector 206 RplNetwork100.sink[0].wlan[0].radio transmissionState:vector ETV
attr interpolationmode sample-hold
attr source transmissionStateChanged
attr title "Radio transmission state, vector"
vector 207 RplNetwork100.host[43].wlan[0].mac packetDropNotAddressToUs:vector(packetBytes) ETV
attr interpolationmode none
attr source packetDropReasonIsNotAddressedToUs(packetDropped)
attr title "packet drop: not addressed to us, vector(packetBytes)"
vector 208 RplNetwork100.host[52].wlan[0].mac packetDropNotAddressToUs:vector(packetBytes) ETV
attr interpolationmode none
attr source packetDropReasonIsNotAddressedToUs(packetDropped)
attr title "packet drop: not addressed to us, vector(packetBytes)"
vector 209 RplNetwork100.sink[0].udp packetReceived:vector(packetBytes) ETV
attr interpolationmode none
attr source packetReceived
attr title "packets received, vector(packetBytes)"
vector 210 RplNetwork100.sink[0].udp passedUpPk:vector(count) ETV
attr interpolationmode none
attr source packetSentToUpper
attr title "packets passed up, vector(count)"
vector 211 RplNetwork100.sink[0].app[0] packetReceived:vector(packetBytes) ETV
attr interpolationmode none
attr source packetReceived
attr title "packets received, vector(packetBytes)"
vector 212 RplNetwork100.sink[0].app[0] throughput:vector ETV
attr source throughput(packetReceived)
attr title "throughput, vector"
attr unit bps
vector 213 RplNetwork100.sink[0].app[0] endToEndDelay:vector ETV
attr interpolationmode none
attr source dataAge(packetReceived)
attr title "end-to-end delay, vector"
attr unit s
vector 214 RplNetwork100.sink[0].app[0] rcvdPkSeqNo:vector ETV
attr interpolationmode none
attr source appPkSeqNo(packetReceived)
attr title "received packet sequence number, vector"
vector 215 RplNetwork100.host[45].wlan[0].radio receptionState:vector ETV
attr interpolationmode sample-hold
attr source receptionStateChanged
attr title "Radio reception state, vector"
vector 216 RplNetwork100.host[45].wlan[0].radio.energyConsumer powerConsumption:vector ETV
attr interpolationmode sample-hold
attr source powerConsumptionChanged
attr title "Power consumption, vector"
vector 217 RplNetwork100.host[45].energyStorage residualEnergyCapacity:vector ETV
attr interpolationmode linear
attr source residualEnergyCapacityChanged
attr title "Residual energy capacity, vector"
vector 218 RplNetwork100.host[45].energyStorage powerConsumption:vector ETV
attr interpolationmode sample-hold
attr source powerConsumptionChanged
attr title "Power consumption, vector"
vector 219 RplNetwork100.host[55].wlan[0].mac packetDropNotAddressToUs:vector(packetBytes) ETV
attr interpolationmode none
attr source packetDropReasonIsNotAddressedToUs(packetDropped)
attr title "packet drop: not addressed to us, vector(packetBytes)"
vector 220 RplNetwork100.host[64].wlan[0].mac packetDropNotAddressToUs:vector(packetBytes) ETV
attr interpolationmode none
attr source packetDropReasonIsNotAddressedToUs(packetDropped)
attr title "packet drop: not addressed to us, vector(packetBytes)"
vector 221 RplNetwork100.host[2].app[0] packetSent:vector(packetBytes) ETV
attr interpolationmode none
attr source packetSent
attr title "packets sent, vector(packetBytes)"
vector 222 RplNetwork100.host[2].udp packetSent:vector(packetBytes) ETV
attr interpolationmode none
attr source packetSent
attr title "packets sent, vector(packetBytes)"
vector 223 RplNetwork100.host[2].wlan[0].mac.queue packetPushed:vector(packetBytes) ETV
attr interpolationmode none
attr title "packet pushed, vector(packetBytes)"
vector 224 RplNetwork100.host[2].wlan[0].mac.queue queueLength:vector ETV
attr interpolationmode sample-hold
attr source "count(packetPushed) - count(packetPopped) - count(packetRemoved) - count(packetDropped)"
attr title "queue length, vector"
vector 225 RplNetwork100.host[2].wlan[0].radio radioMode:vector ETV
attr interpolationmode sample-hold
attr source radioModeChanged
attr title "Radio mode, vector"
vector 226 RplNetwork100.host[2].wlan[0].radio.energyConsumer powerConsumption:vector ETV
attr interpolationmode sample-hold
attr source powerConsumptionChanged
attr title "Power consumption, vector"
vector 227 RplNetwork100.host[2].energyStorage residualEnergyCapacity:vector ETV
attr interpolationmode linear
attr source residualEnergyCapacityChanged
attr title "Residual energy capacity, vector"
vector 228 RplNetwork100.host[2].energyStorage powerConsumption:vector ETV
attr interpolationmode sample-hold
attr source powerConsumptionChanged
attr title "Power consumption, vector"
vector 229 RplNetwork100.host[2].wlan[0].radio receptionState:vector ETV
attr interpolationmode sample-hold
attr source receptionStateChanged
attr title "Radio reception state, vector"
vector 230 RplNetwork100.host[2].wlan[0].radio transmissionState:vector ETV
attr interpolationmode sample-hold
attr source transmissionStateChanged
attr title "Radio transmission state, vector"
vector 231 RplNetwork100.host[2].wlan[0].mac.queue packetPopped:vector(packetBytes) ETV
attr interpolationmode none
attr title "packet popped, vector(packetBytes)"
vector 232 RplNetwork100.host[2].wlan[0].mac.queue queueingTime:vector ETV
attr interpolationmode none
attr source queueingTime(packetPopped)
attr title "queueing times, vector"
attr unit s
vector 233 RplNetwork100.host[1].wlan[0].radio receptionState:vector ETV
attr interpolationmode sample-hold
attr source receptionStateChanged
attr title "Radio reception state, vector"
vector 234 RplNetwork100.host[1].wlan[0].radio.energyConsumer powerConsumption:vector ETV
attr interpolationmode sample-hold
attr source powerConsumptionChanged
attr title "Power consumption, vector"
vector 235 RplNetwork100.host[1].energyStorage residualEnergyCapacity:vector ETV
attr interpolationmode linear
attr source residualEnergyCapacityChanged
attr title "Residual energy capacity, vector"
vector 236 RplNetwork100.host[1].energyStorage powerConsumption:vector ETV
attr interpolationmode sample-hold
attr source powerConsumptionChanged
attr title "Power consumption, vector"
vector 237 RplNetwork100.host[3].wlan[0].radio receptionState:vector ETV
attr interpolationmode sample-hold
attr source receptionStateChanged
attr title "Radio reception state, vector"
vector 238 RplNetwork100.host[3].wlan[0].radio.energyConsumer powerConsumption:vector ETV
attr interpolationmode sample-hold
attr source powerConsumptionChanged
attr title "Power consumption, vector"
vector 239 RplNetwork100.host[3].energyStorage residualEnergyCapacity:vector ETV
attr interpolationmode linear
attr source residualEnergyCapacityChanged
attr title "Residual energy capacity, vector"
vector 240 RplNetwork100.host[3].energyStorage powerConsumption:vector ETV
attr interpolationmode sample-hold
attr source powerConsumptionChanged
attr title "Power consumption, vector"
vector 241 RplNetwork100.host[12].wlan[0].radio receptionState:vector ETV
attr interpolationmode sample-hold
attr source receptionStateChanged
attr title "Radio reception state, vector"
vector 242 RplNetwork100.host[12].wlan[0].radio.energyConsumer powerConsumption:vector ETV
attr interpolationmode sample-hold
attr source powerConsumptionChanged
attr title "Power consumption, vector"
vector 243 RplNetwork100.host[12].energyStorage residualEnergyCapacity:vector ETV
attr interpolationmode linear
attr source residualEnergyCapacityChanged
attr title "Residual energy capacity, vector"
vector 244 RplNetwork100.host[12].energyStorage powerConsumption:vector ETV
attr interpolationmode sample-hold
attr source powerConsumptionChanged
attr title "Power consumption, vector"
vector 245 RplNetwork100.host[11].wlan[0].radio receptionState:vector ETV
attr interpolationmode sample-hold
attr source receptionStateChanged
attr title "Radio reception state, vector"
vector 246 RplNetwork100.host[11].wlan[0].radio.energyConsumer powerConsumption:vector ETV
attr interpolationmode sample-hold
attr source powerConsumptionChanged
attr title "Power consumption, vector"
vector 247 RplNetwork100.host[11].energyStorage residualEnergyCapacity:vector ETV
attr interpolationmode linear
attr source residualEnergyCapacityChanged
attr title "Residual energy capacity, vector"
vector 248 RplNetwork100.host[11].energyStorage powerConsumption:vector ETV
attr interpolationmode sample-hold
attr source powerConsumptionChanged
attr title "Power consumption, vector"
vector 249 RplNetwork100.host[13].wlan[0].radio receptionState:vector ETV
attr interpolationmode sample-hold
attr source receptionStateChanged
attr title "Radio reception state, vector"
vector 250 RplNetwork100.host[13].wlan[0].radio.energyConsumer powerConsumption:vector ETV
attr interpolationmode sample-hold
attr source powerConsumptionChanged
attr title "Power consumption, vector"
vector 251 RplNetwork100.host[13].energyStorage residualEnergyCapacity:vector ETV
attr interpolationmode linear
attr source residualEnergyCapacityChanged
attr title "Residual energy capacity, vector"
vector 252 RplNetwork100.host[13].energyStorage powerConsumption:vector ETV
attr interpolationmode sample-hold
attr source powerConsumptionChanged
attr title "Power consumption, vector"
vector 253 RplNetwork100.host[1].wlan[0].mac packetDropNotAddressToUs:vector(packetBytes) ETV
attr interpolationmode none
attr source packetDropReasonIsNotAddressedToUs(packetDropped)
attr title "packet drop: not addressed to us, vector(packetBytes)"
vector 254 RplNetwork100.host[3].wlan[0].mac packetDropNotAddressToUs:vector(packetBytes) ETV
attr interpolationmode none
attr source packetDropReasonIsNotAddressedToUs(packetDropped)
attr title "packet drop: not addressed to us, vector(packetBytes)"
vector 255 RplNetwork100.host[12].wlan[0].radio radioMode:vector ETV
attr interpolationmode sample-hold
attr source radioModeChanged
attr title "Radio mode, vector"
vector 256 RplNetwork100.host[12].wlan[0].radio transmissionState:vector ETV
attr interpolationmode sample-hold
attr source transmissionStateChanged
attr title "Radio transmission state, vector"
vector 257 RplNetwork100.host[21].wlan[0].radio receptionState:vector ETV
attr interpolationmode sample-hold
attr source receptionStateChanged
attr title "Radio reception state, vector"
vector 258 RplNetwork100.host[21].wlan[0].radio.energyConsumer powerConsumption:vector ETV
attr interpolationmode sample-hold
attr source powerConsumptionChanged
attr title "Power consumption, vector"
vector 259 RplNetwork100.host[21].energyStorage residualEnergyCapacity:vector ETV
attr interpolationmode linear
attr source residualEnergyCapacityChanged
attr title "Residual energy capacity, vector"
vector 260 RplNetwork100.host[21].energyStorage powerConsumption:vector ETV
attr interpolationmode sample-hold
attr source powerConsumptionChanged
attr title "Power consumption, vector"
vector 261 RplNetwork100.host[11].wlan[0].mac packetDropNotAddressToUs:vector(packetBytes) ETV
attr interpolationmode none
attr source packetDropReasonIsNotAddressedToUs(packetDropped)
attr title "packet drop: not addressed to us, vector(packetBytes)"
vector 262 RplNetwork100.host[13].wlan[0].mac packetDropNotAddressToUs:vector(packetBytes) ETV
attr interpolationmode none
attr source packetDropReasonIsNotAddressedToUs(packetDropped)
attr title "packet drop: not addressed to us, vector(packetBytes)"
vector 263 RplNetwork100.host[22].wlan[0].mac packetDropNotAddressToUs:vector(packetBytes) ETV
attr interpolationmode none
attr source packetDropReasonIsNotAddressedToUs(packetDropped)
attr title "packet drop: not addressed to us, vector(packetBytes)"
vector 264 RplNetwork100.host[35].app[0] packetSent:vector(packetBytes) ETV
attr interpolationmode none
attr source packetSent
attr title "packets sent, vector(packetBytes)"
vector 265 RplNetwork100.host[35].udp packetSent:vector(packetBytes) ETV
attr interpolationmode none
attr source packetSent
attr title "packets sent, vector(packetBytes)"
vector 266 RplNetwork100.host[35].wlan[0].mac.queue packetPushed:vector(packetBytes) ETV
attr interpolationmode none
attr title "packet pushed, vector(packetBytes)"
vector 267 RplNetwork100.host[35].wlan[0].mac.queue queueLength:vector ETV
attr interpolationmode sample-hold
attr source "count(packetPushed) - count(packetPopped) - count(packetRemoved) - count(packetDropped)"
attr title "queue length, vector"
vector 268 RplNetwork100.host[35].wlan[0].radio radioMode:vector ETV
attr interpolationmode sample-hold
attr source radioModeChanged
attr title "Radio mode, vector"
vector 269 RplNetwork100.host[35].wlan[0].radio.energyConsumer powerConsumption:vector ETV
attr interpolationmode sample-hold
attr source powerConsumptionChanged
attr title "Power consumption, vector"
vector 270 RplNetwork100.host[35].energyStorage residualEnergyCapacity:vector ETV
attr interpolationmode linear
attr source residualEnergyCapacityChanged
attr title "Residual energy capacity, vector"
vector 271 RplNetwork100.host[35].energyStorage powerConsumption:vector ETV
attr interpolationmode sample-hold
attr source powerConsumptionChanged
attr title "Power consumption, vector"
vector 272 RplNetwork100.host[35].wlan[0].radio receptionState:vector ETV
attr interpolationmode sample-hold
attr source receptionStateChanged
attr title "Radio reception state, vector"
vector 273 RplNetwork100.host[35].wlan[0].radio transmissionState:vector ETV
attr interpolationmode sample-hold
attr source transmissionStateChanged
attr title "Radio transmission state, vector"
vector 274 RplNetwork100.host[35].wlan[0].mac.queue packetPopped:vector(packetBytes) ETV
attr interpolationmode none
attr title "packet popped, vector(packetBytes)"
vector 275 RplNetwork100.host[35].wlan[0].mac.queue queueingTime:vector ETV
attr interpolationmode none
attr source queueingTime(packetPopped)
attr title "queueing times, vector"
attr unit s
vector 276 RplNetwork100.host[25].wlan[0].radio receptionState:vector ETV
attr interpolationmode sample-hold
attr source receptionStateChanged
attr title "Radio reception state, vector"
vector 277 RplNetwork100.host[25].wlan[0].radio.energyConsumer powerConsumption:vector ETV
attr interpolationmode sample-hold
attr source powerConsumptionChanged
attr title "Power consumption, vector"
vector 278 RplNetwork100.host[25].energyStorage residualEnergyCapacity:vector ETV
attr interpolationmode linear
attr source residualEnergyCapacityChanged
attr title "Residual energy capacity, vector"
vector 279 RplNetwork100.host[25].energyStorage powerConsumption:vector ETV
attr interpolationmode sample-hold
attr source powerConsumptionChanged
attr title "Power consumption, vector"
vector 280 RplNetwork100.host[26].wlan[0].radio receptionState:vector ETV
attr interpolationmode sample-hold
attr source receptionStateChanged
attr title "Radio reception state, vector"
vector 281 RplNetwork100.host[26].wlan[0].radio.energyConsumer powerConsumption:vector ETV
attr interpolationmode sample-hold
attr source powerConsumptionChanged
attr title "Power consumption, vector"
vector 282 RplNetwork100.host[26].energyStorage residualEnergyCapacity:vector ETV
attr interpolationmode linear
attr source residualEnergyCapacityChanged
attr title "Residual energy capacity, vector"
vector 283 RplNetwork100.host[26].energyStorage powerConsumption:vector ETV
attr interpolationmode sample-hold
attr source powerConsumptionChanged
attr title "Power consumption, vector"
vector 284 RplNetwork100.host[25].wlan[0].mac packetDropNotAddressToUs:vector(packetBytes) ETV
attr interpolationmode none
attr source packetDropReasonIsNotAddressedToUs(packetDropped)
attr title "packet drop: not addressed to us, vector(packetBytes)"
vector 285 RplNetwork100.host[34].wlan[0].radio radioMode:vector ETV
attr interpolationmode sample-hold
attr source radioModeChanged
attr title "Radio mode, vector"
vector 286 RplNetwork100.host[34].wlan[0].radio transmissionState:vector ETV
attr interpolationmode sample-hold
attr source transmissionStateChanged
attr title "Radio transmission state, vector"
vector 287 RplNetwork100.host[36].wlan[0].mac packetDropNotAddressToUs:vector(packetBytes) ETV
attr interpolationmode none
attr source packetDropReasonIsNotAddressedToUs(packetDropped)
attr title "packet drop: not addressed to us, vector(packetBytes)"
vector 288 RplNetwork100.host[45].wlan[0].mac packetDropNotAddressToUs:vector(packetBytes) ETV
attr interpolationmode none
attr source packetDropReasonIsNotAddressedToUs(packetDropped)
attr title "packet drop: not addressed to us, vector(packetBytes)"
vector 289 RplNetwork100.host[24].wlan[0].mac packetDropNotAddressToUs:vector(packetBytes) ETV
attr interpolationmode none
attr source packetDropReasonIsNotAddressedToUs(packetDropped)
attr title "packet drop: not addressed to us, vector(packetBytes)"
vector 290 RplNetwork100.host[33].wlan[0].mac packetDropNotAddressToUs:vector(packetBytes) ETV
attr interpolationmode none
attr source packetDropReasonIsNotAddressedToUs(packetDropped)
attr title "packet drop: not addressed to us, vector(packetBytes)"
vector 291 RplNetwork100.host[83].app[0] packetSent:vector(packetBytes) ETV
attr interpolationmode none
attr source packetSent
attr title "packets sent, vector(packetBytes)"
vector 292 RplNetwork100.host[83].udp packetSent:vector(packetBytes) ETV
attr interpolationmode none
attr source packetSent
attr title "packets sent, vector(packetBytes)"
vector 293 RplNetwork100.host[83].wlan[0].mac.queue packetPushed:vector(packetBytes) ETV
attr interpolationmode none
attr title "packet pushed, vector(packetBytes)"
vector 294 RplNetwork100.host[83].wlan[0].mac.queue queueLength:vector ETV
attr interpolationmode sample-hold
attr source "count(packetPushed) - count(packetPopped) - count(packetRemoved) - count(packetDropped)"
attr title "queue length, vector"
vector 295 RplNetwork100.host[83].wlan[0].radio radioMode:vector ETV
attr interpolationmode sample-hold
attr source radioModeChanged
attr title "Radio mode, vector"
vector 296 RplNetwork100.host[83].wlan[0].radio transmissionState:vector ETV
attr interpolationmode sample-hold
attr source transmissionStateChanged
attr title "Radio transmission state, vector"
vector 297 RplNetwork100.host[83].wlan[0].mac.queue packetPopped:vector(packetBytes) ETV
attr interpolationmode none
attr title "packet popped, vector(packetBytes)"
vector 298 RplNetwork100.host[83].wlan[0].mac.queue queueingTime:vector ETV
attr interpolationmode none
attr source queueingTime(packetPopped)
attr title "queueing times, vector"
attr unit s
vector 299 RplNetwork100.host[82].wlan[0].radio receptionState:vector ETV
attr interpolationmode sample-hold
attr source receptionStateChanged
attr title "Radio reception state, vector"
vector 300 RplNetwork100.host[82].wlan[0].radio.energyConsumer powerConsumption:vector ETV
attr interpolationmode sample-hold
attr source powerConsumptionChanged
attr title "Power consumption, vector"
vector 301 RplNetwork100.host[82].energyStorage residualEnergyCapacity:vector ETV
attr interpolationmode linear
attr source residualEnergyCapacityChanged
attr title "Residual energy capacity, vector"
vector 302 RplNetwork100.host[82].energyStorage powerConsumption:vector ETV
attr interpolationmode sample-hold
attr source powerConsumptionChanged
attr title "Power consumption, vector"
vector 303 RplNetwork100.host[93].wlan[0].radio receptionState:vector ETV
attr interpolationmode sample-hold
attr source receptionStateChanged
attr title "Radio reception state, vector"
vector 304 RplNetwork100.host[93].wlan[0].radio.energyConsumer powerConsumption:vector ETV
attr interpolationmode sample-hold
attr source powerConsumptionChanged
attr title "Power consumption, vector"
vector 305 RplNetwork100.host[93].energyStorage residualEnergyCapacity:vector ETV
attr interpolationmode linear
attr source residualEnergyCapacityChanged
attr title "Residual energy capacity, vector"
vector 306 RplNetwork100.host[93].energyStorage powerConsumption:vector ETV
attr interpolationmode sample-hold
attr source powerConsumptionChanged
attr title "Power consumption, vector"
vector 307 RplNetwork100.host[92].wlan[0].radio receptionState:vector ETV
attr interpolationmode sample-hold
attr source receptionStateChanged
attr title "Radio reception state, vector"
vector 308 RplNetwork100.host[92].wlan[0].radio.energyConsumer powerConsumption:vector ETV
attr interpolationmode sample-hold
attr source powerConsumptionChanged
attr title "Power consumption, vector"
vector 309 RplNetwork100.host[92].energyStorage residualEnergyCapacity:vector ETV
attr interpolationmode linear
attr source residualEnergyCapacityChanged
attr title "Residual energy capacity, vector"
vector 310 RplNetwork100.host[92].energyStorage powerConsumption:vector ETV
attr interpolationmode sample-hold
attr source powerConsumptionChanged
attr title "Power consumption, vector"
vector 311 RplNetwork100.host[94].wlan[0].radio receptionState:vector ETV
attr interpolationmode sample-hold
attr source receptionStateChanged
attr title "Radio reception state, vector"
vector 312 RplNetwork100.host[94].wlan[0].radio.energyConsumer powerConsumption:vector ETV
attr interpolationmode sample-hold
attr source powerConsumptionChanged
attr title "Power consumption, vector"
vector 313 RplNetwork100.host[94].energyStorage residualEnergyCapacity:vector ETV
attr interpolationmode linear
attr source residualEnergyCapacityChanged
attr title "Residual energy capacity, vector"
vector 314 RplNetwork100.host[94].energyStorage powerConsumption:vector ETV
attr interpolationmode sample-hold
attr source powerConsumptionChanged
attr title "Power consumption, vector"
vector 315 RplNetwork100.host[73].wlan[0].radio radioMode:vector ETV
attr interpolationmode sample-hold
attr source radioModeChanged
attr title "Radio mode, vector"
vector 316 RplNetwork100.host[73].wlan[0].radio transmissionState:vector ETV
attr interpolationmode sample-hold
attr source transmissionStateChanged
attr title "Radio transmission state, vector"
vector 317 RplNetwork100.host[82].wlan[0].mac packetDropNotAddressToUs:vector(packetBytes) ETV
attr interpolationmode none
attr source packetDropReasonIsNotAddressedToUs(packetDropped)
attr title "packet drop: not addressed to us, vector(packetBytes)"
vector 318 RplNetwork100.host[93].wlan[0].mac packetDropNotAddressToUs:vector(packetBytes) ETV
attr interpolationmode none
attr source packetDropReasonIsNotAddressedToUs(packetDropped)
attr title "packet drop: not addressed to us, vector(packetBytes)"
vector 319 RplNetwork100.host[72].wlan[0].mac packetDropNotAddressToUs:vector(packetBytes) ETV
attr interpolationmode none
attr source packetDropReasonIsNotAddressedToUs(packetDropped)
attr title "packet drop: not addressed to us, vector(packetBytes)"
vector 320 RplNetwork100.host[74].wlan[0].mac packetDropNotAddressToUs:vector(packetBytes) ETV
attr interpolationmode none
attr source packetDropReasonIsNotAddressedToUs(packetDropped)
attr title "packet drop: not addressed to us, vector(packetBytes)"
vector 321 RplNetwork100.host[66].wlan[0].mac.queue packetPushed:vector(packetBytes) ETV
attr interpolationmode none
attr title "packet pushed, vector(packetBytes)"
vector 322 RplNetwork100.host[66].wlan[0].mac.queue queueLength:vector ETV
attr interpolationmode sample-hold
attr source "count(packetPushed) - count(packetPopped) - count(packetRemoved) - count(packetDropped)"
attr title "queue length, vector"
vector 323 RplNetwork100.host[66].wlan[0].radio radioMode:vector ETV
attr interpolationmode sample-hold
attr source radioModeChanged
attr title "Radio mode, vector"
vector 324 RplNetwork100.host[66].wlan[0].radio transmissionState:vector ETV
attr interpolationmode sample-hold
attr source transmissionStateChanged
attr title "Radio transmission state, vector"
vector 325 RplNetwork100.host[66].wlan[0].mac.queue packetPopped:vector(packetBytes) ETV
attr interpolationmode none
attr title "packet popped, vector(packetBytes)"
vector 326 RplNetwork100.host[66].wlan[0].mac.queue queueingTime:vector ETV
attr interpolationmode none
attr source queueingTime(packetPopped)
attr title "queueing times, vector"
attr unit s
vector 327 RplNetwork100.host[76].wlan[0].radio receptionState:vector ETV
attr interpolationmode sample-hold
attr source receptionStateChanged
attr title "Radio reception state, vector"
vector 328 RplNetwork100.host[76].wlan[0].radio.energyConsumer powerConsumption:vector ETV
attr interpolationmode sample-hold
attr source powerConsumptionChanged
attr title "Power consumption, vector"
vector 329 RplNetwork100.host[76].energyStorage residualEnergyCapacity:vector ETV
attr interpolationmode linear
attr source residualEnergyCapacityChanged
attr title "Residual energy capacity, vector"
vector 330 RplNetwork100.host[76].energyStorage powerConsumption:vector ETV
attr interpolationmode sample-hold
attr source powerConsumptionChanged
attr title "Power consumption, vector"
vector 331 RplNetwork100.host[77].wlan[0].radio receptionState:vector ETV
attr interpolationmode sample-hold
attr source receptionStateChanged
attr title "Radio reception state, vector"
vector 332 RplNetwork100.host[77].wlan[0].radio.energyConsumer powerConsumption:vector ETV
attr interpolationmode sample-hold
attr source powerConsumptionChanged
attr title "Power consumption, vector"
vector 333 RplNetwork100.host[77].energyStorage residualEnergyCapacity:vector ETV
attr interpolationmode linear
attr source residualEnergyCapacityChanged
attr title "Residual energy capacity, vector"
vector 334 RplNetwork100.host[77].energyStorage powerConsumption:vector ETV
attr interpolationmode sample-hold
attr source powerConsumptionChanged
attr title "Power consumption, vector"
vector 335 RplNetwork100.host[8].app[0] packetSent:vector(packetBytes) ETV
attr interpolationmode none
attr source packetSent
attr title "packets sent, vector(packetBytes)"
vector 336 RplNetwork100.host[8].udp packetSent:vector(packetBytes) ETV
attr interpolationmode none
attr source packetSent
attr title "packets sent, vector(packetBytes)"
vector 337 RplNetwork100.host[8].wlan[0].mac.queue packetPushed:vector(packetBytes) ETV
attr interpolationmode none
attr title "packet pushed, vector(packetBytes)"
vector 338 RplNetwork100.host[8].wlan[0].mac.queue queueLength:vector ETV
attr interpolationmode sample-hold
attr source "count(packetPushed) - count(packetPopped) - count(packetRemoved) - count(packetDropped)"
attr title "queue length, vector"
vector 339 RplNetwork100.host[8].wlan[0].radio radioMode:vector ETV
attr interpolationmode sample-hold
attr source radioModeChanged
attr title "Radio mode, vector"
vector 340 RplNetwork100.host[8].wlan[0].radio.energyConsumer powerConsumption:vector ETV
attr interpolationmode sample-hold
attr source powerConsumptionChanged
[...]
1095	55248403 748 2541299 3495777 2366.742004556581 3521.742004556581 22 64 64 1408 90112
1096	55249151 944 2546188 3512238 2372.538495173212 3541.014452559873 27 73 113 3011 337323
1097	55250095 1782 2546188 3512240 2372.538495173212 3541.016180559873 54 0 1 27 27
1098	55251877 944 2546190 3512240 2372.539903173212 3541.016180559873 27 73 113 3011 337323
1099	55252821 1080 2546190 3512240 2372.539903173212 3541.016180559873 27 0.000128 0.002368 0.036096 5.9588608e-05
1100	55253901 748 2541936 3496198 2367.481687383261 3522.481687383261 22 56 56 1232 68992
1101	55254649 748 2541937 3496199 2367.481687383261 3522.481687383261 22 64 64 1408 90112
1102	55255397 1496 2542048 3502415 2367.486775516687 3529.059997415187 44 5 113 2596 281468
1103	55256893 979 2563104 3523357 2389.172343418468 3569.155871110038 28 73 113 3124 350092
1104	55257872 1848 2563104 3523359 2389.172343418468 3569.156959110038 56 0 1 28 28
1105	55259720 1848 2563106 3523461 2389.172471418468 3569.160959110038 56 2 3 140 364
1106	55261568 3696 2563106 3523461 2389.172471418468 3569.160959110038 112 0 2 112 168
1107	55265264 979 2563106 3523359 2389.172471418468 3569.156959110038 28 73 113 3124 350092
1108	55266243 1120 2563106 3523359 2389.172471418468 3569.156959110038 28 0.000128 0.002368 0.029824 4.8136192e-05
1109	55267363 748 2542358 3496620 2367.782247418072 3522.782247418072 22 56 56 1232 68992
1110	55268111 748 2542359 3496621 2367.782247418072 3522.782247418072 22 64 64 1408 90112
1111	55268859 1540 2542471 3506423 2367.787975551498 3533.661888608538 44 113 113 4972 561836
1112	55270399 748 2542779 3497041 2368.354367031716 3523.354367031716 22 56 56 1232 68992
1113	55271147 748 2542780 3497042 2368.354367031716 3523.354367031716 22 64 64 1408 90112
1114	55271895 943 2542782 3522700 2368.354367031716 3562.668410761749 27 73 113 3011 337323
1115	55272838 1780 2542782 3522702 2368.354367031716 3562.670138761749 54 0 1 27 27
1116	55274618 3232 2542784 3522804 2368.354815031716 3562.674138761749 98 2 3 245 637
1117	55277850 6464 2542784 3522804 2368.354815031716 3562.674138761749 196 0 2 196 294
1118	55284314 943 2542784 3522702 2368.354815031716 3562.670138761749 27 73 113 3011 337323
1119	55285257 1079 2542784 3522702 2368.354815031716 3562.670138761749 27 0.000448 0.002368 0.034176 5.2748288e-05
1120	55286336 748 2543417 3497461 2369.411883205175 3524.411883205175 22 56 56 1232 68992
1121	55287084 748 2543418 3497462 2369.411883205175 3524.411883205175 22 64 64 1408 90112
1122	55287832 748 2543839 3497883 2370.052936512511 3525.052936512511 22 56 56 1232 68992
1123	55288580 748 2543840 3497884 2370.052936512511 3525.052936512511 22 64 64 1408 90112
1124	55289328 748 2544261 3498305 2371.012357585132 3526.012357585132 22 56 56 1232 68992
1125	55290076 748 2544262 3498306 2371.012357585132 3526.012357585132 22 64 64 1408 90112
1126	55290824 748 2545125 3498727 2371.946242623962 3526.946242623962 22 56 56 1232 68992
1127	55291572 748 2545126 3498728 2371.946242623962 3526.946242623962 22 64 64 1408 90112
1128	55292320 748 2545546 3499148 2371.976026794873 3526.976026794873 22 56 56 1232 68992
1129	55293068 748 2545547 3499149 2371.976026794873 3526.976026794873 22 64 64 1408 90112
1130	55293816 874 2545549 3499151 2371.976026794873 3526.976026794873 25 73 113 2785 311785
1131	55294690 1650 2545549 3499153 2371.976026794873 3526.977114794873 50 0 1 25 25
1132	55296340 1650 2545551 3499255 2371.976154794873 3526.981114794873 50 2 3 125 325
1133	55297990 3300 2545551 3499255 2371.976154794873 3526.981114794873 100 0 2 100 150
1134	55301290 874 2545551 3499153 2371.976154794873 3526.977114794873 25 73 113 2785 311785
1135	55302164 1000 2545551 3499153 2371.976154794873 3526.977114794873 25 0.000128 0.002368 0.02976 4.868096e-05
1136	55303164 748 2546185 3499570 2372.538495173212 3527.538495173212 22 56 56 1232 68992
1137	55303912 748 2546186 3499571 2372.538495173212 3527.538495173212 22 64 64 1408 90112
1138	55304660 748 2546713 3499992 2373.000213378109 3528.000213378109 22 56 56 1232 68992
1139	55305408 748 2546714 3499993 2373.000213378109 3528.000213378109 22 64 64 1408 90112
1140	55306156 910 2546716 3499995 2373.000213378109 3528.000213378109 26 113 113 2938 331994
1141	55307066 1716 2546716 3499997 2373.000213378109 3528.000981378109 52 0 1 26 26
1142	55308782 4620 2546718 3516143 2373.000661378109 3544.177335551894 140 2 3 350 910
1143	55313402 9240 2546718 3516143 2373.000661378109 3544.177335551894 280 0 2 280 420
1144	55322642 910 2546718 3499997 2373.000661378109 3528.000981378109 26 113 113 2938 331994
1145	55323552 1040 2546718 3499997 2373.000661378109 3528.000981378109 26 0.000128 0.002048 0.030848 4.6997504e-05
1146	55324592 2948 2546940 3516150 2373.004661511535 3544.17733568532 88 5 113 5192 562936
1147	55327540 748 2547249 3500414 2373.136121714488 3528.136121714488 22 56 56 1232 68992
1148	55328288 748 2547250 3500415 2373.136121714488 3528.136121714488 22 64 64 1408 90112
1149	55329036 726 2547668 3500833 2373.17750249058 3528.17750249058 22 56 56 1232 68992
1150	55329762 726 2547669 3500834 2373.17750249058 3528.17750249058 22 64 64 1408 90112
1151	55330488 1540 2547779 3515942 2373.183550624006 3544.176791551894 44 113 113 4972 561836
1152	55332028 4466 2547988 3516149 2373.184094757432 3544.17733568532 132 5 113 7788 844404
1153	55336494 748 2548087 3501252 2373.189860370476 3528.189860370476 22 56 56 1232 68992
1154	55337242 748 2548088 3501253 2373.189860370476 3528.189860370476 22 64 64 1408 90112
1155	55337990 748 2548511 3501676 2373.369543950539 3528.369543950539 22 56 56 1232 68992
1156	55338738 748 2548512 3501677 2373.369543950539 3528.369543950539 22 64 64 1408 90112
1157	55339486 748 2548932 3502097 2374.053085148335 3529.053085148335 22 56 56 1232 68992
1158	55340234 748 2548933 3502098 2374.053085148335 3529.053085148335 22 64 64 1408 90112
1159	55340982 909 2543202 3502100 2369.209885779929 3529.053085148335 26 73 113 2898 324554
1160	55341891 1716 2543202 3502102 2369.209885779929 3529.055453148335 52 0 1 26 26
1161	55343607 1716 2543204 3502204 2369.210653779929 3529.059453148335 52 2 3 130 338
1162	55345323 3432 2543204 3502204 2369.210653779929 3529.059453148335 104 0 2 104 156
1163	55348755 909 2543204 3502102 2369.210653779929 3529.055453148335 26 73 113 2898 324554
1164	55349664 1040 2543204 3502102 2369.210653779929 3529.055453148335 26 0.000128 0.002368 0.036288 6.5695744e-05
1165	55350704 748 2549352 3502517 2374.426024078857 3529.426024078857 22 56 56 1232 68992
1166	55351452 748 2549353 3502518 2374.426024078857 3529.426024078857 22 64 64 1408 90112
1167	55352200 4620 2549464 3516781 2374.431752212283 3544.855812567768 140 2 3 350 910
1168	55356820 9240 2549464 3516781 2374.431752212283 3544.855812567768 280 0 2 280 420
1169	55366060 748 2549774 3502939 2374.594122108538 3529.594122108538 22 56 56 1232 68992
1170	55366808 748 2549775 3502940 2374.594122108538 3529.594122108538 22 64 64 1408 90112
1171	55367556 943 2549777 3502942 2374.594122108538 3529.594122108538 27 73 113 3011 337323
1172	55368499 1780 2549777 3502944 2374.594122108538 3529.596170108538 54 0 1 27 27
1173	55370279 3232 2549779 3514457 2374.595530108538 3541.897134724958 98 2 3 245 637
1174	55373511 6464 2549779 3514457 2374.595530108538 3541.897134724958 196 0 2 196 294
1175	55379975 943 2549779 3502944 2374.595530108538 3529.596170108538 27 73 113 3011 337323
1176	55380918 1079 2549779 3502944 2374.595530108538 3529.596170108538 27 0.000128 0.002368 0.032256 5.3075968e-05
1177	55381997 748 2550194 3503359 2374.934652987868 3529.934652987868 22 56 56 1232 68992
1178	55382745 748 2550195 3503360 2374.934652987868 3529.934652987868 22 64 64 1408 90112
1179	55383493 748 2550615 3503780 2375.117683536373 3530.117683536373 22 56 56 1232 68992
1180	55384241 748 2550616 3503781 2375.117683536373 3530.117683536373 22 64 64 1408 90112
1181	55384989 840 2550618 3503783 2375.117683536373 3530.117683536373 24 113 113 2712 306456
1182	55385829 1584 2550618 3503785 2375.117683536373 3530.119731536373 48 0 1 24 24
1183	55387413 840 2550620 3503785 2375.118771536373 3530.119731536373 24 113 113 2712 306456
1184	55388253 960 2550620 3503785 2375.118771536373 3530.119731536373 24 0.000128 0.002368 0.028032 4.3032576e-05
1185	55389213 748 2551037 3504202 2375.435960586183 3530.435960586183 22 56 56 1232 68992
1186	55389961 748 2551038 3504203 2375.435960586183 3530.435960586183 22 64 64 1408 90112
1187	55390709 748 2551459 3504624 2375.535791746806 3530.535791746806 22 56 56 1232 68992
1188	55391457 748 2551460 3504625 2375.535791746806 3530.535791746806 22 64 64 1408 90112
1189	55392205 748 2551881 3505046 2376.187255410478 3531.187255410478 22 56 56 1232 68992
1190	55392953 748 2551882 3505047 2376.187255410478 3531.187255410478 22 64 64 1408 90112
1191	55393701 909 2551884 3505049 2376.187255410478 3531.187255410478 26 73 113 2898 324554
1192	55394610 1716 2551884 3505051 2376.187255410478 3531.188023410478 52 0 1 26 26
1193	55396326 1716 2551886 3505153 2376.188343410478 3531.192023410478 52 2 3 130 338
1194	55398042 3432 2551886 3505153 2376.188343410478 3531.192023410478 104 0 2 104 156
1195	55401474 909 2551886 3505051 2376.188343410478 3531.188023410478 26 73 113 2898 324554
1196	55402383 1040 2551886 3505051 2376.188343410478 3531.188023410478 26 0.000128 0.002368 0.027008 4.3147264e-05
1197	55403423 748 2552518 3505466 2376.506517492235 3531.506517492235 22 56 56 1232 68992
1198	55404171 748 2552519 3505467 2376.506517492235 3531.506517492235 22 64 64 1408 90112
1199	55404919 873 2552521 3505469 2376.506517492235 3531.506517492235 25 73 113 2785 311785
1200	55405792 1648 2552521 3505471 2376.506517492235 3531.508885492235 50 0 1 25 25
1201	55407440 873 2552523 3505471 2376.506645492235 3531.508885492235 25 73 113 2785 311785
1202	55408313 999 2552523 3505471 2376.506645492235 3531.508885492235 25 0.000128 0.002368 0.032 5.34528e-05
1203	55409312 748 2553160 3505888 2377.952591779176 3532.952591779176 22 56 56 1232 68992
1204	55410060 748 2553161 3505889 2377.952591779176 3532.952591779176 22 64 64 1408 90112
1205	55410808 748 2553582 3506310 2378.655840475112 3533.655840475112 22 56 56 1232 68992
1206	55411556 748 2553583 3506311 2378.655840475112 3533.655840475112 22 64 64 1408 90112
1207	55412304 909 2553585 3506313 2378.655840475112 3533.655840475112 26 73 113 2898 324554
1208	55413213 1716 2553585 3506315 2378.655840475112 3533.657888475112 52 0 1 26 26
1209	55414929 1716 2553587 3506417 2378.656928475112 3533.661888475112 52 2 3 130 338
1210	55416645 3432 2553587 3506417 2378.656928475112 3533.661888475112 104 0 2 104 156
1211	55420077 909 2553587 3506315 2378.656928475112 3533.657888475112 26 73 113 2898 324554
1212	55420986 1040 2553587 3506315 2378.656928475112 3533.657888475112 26 0.000128 0.002368 0.036288 6.8153344e-05
1213	55422026 726 2554003 3506731 2378.83875383297 3533.83875383297 22 56 56 1232 68992
1214	55422752 726 2554004 3506732 2378.83875383297 3533.83875383297 22 64 64 1408 90112
1215	55423478 852 2554006 3506734 2378.83875383297 3533.83875383297 25 73 113 2785 311785
1216	55424330 1606 2554006 3506736 2378.83875383297 3533.84080183297 50 0 1 25 25
1217	55425936 1606 2554008 3506838 2378.83920183297 3533.84480183297 50 2 3 125 325
1218	55427542 3212 2554008 3506838 2378.83920183297 3533.84480183297 100 0 2 100 150
1219	55430754 852 2554008 3506736 2378.83920183297 3533.84080183297 25 73 113 2785 311785
1220	55431606 978 2554008 3506736 2378.83920183297 3533.84080183297 25 0.000128 0.002368 0.0384 6.98368e-05
1221	55432584 748 2554425 3507153 2378.944644993171 3533.944644993171 22 56 56 1232 68992
1222	55433332 748 2554426 3507154 2378.944644993171 3533.944644993171 22 64 64 1408 90112
1223	55434080 748 2554848 3507574 2379.012663478497 3534.012663478497 22 56 56 1232 68992
1224	55434828 748 2554849 3507575 2379.012663478497 3534.012663478497 22 64 64 1408 90112
1225	55435576 874 2554851 3507577 2379.012663478497 3534.012663478497 25 113 113 2825 319225
1226	55436450 1648 2554851 3507579 2379.012663478497 3534.015031478497 50 0 1 25 25
1227	55438098 1648 2554853 3507681 2379.015031478497 3534.019031478497 50 2 3 125 325
1228	55439746 3296 2554853 3507681 2379.015031478497 3534.019031478497 100 0 2 100 150
1229	55443042 874 2554853 3507579 2379.015031478497 3534.015031478497 25 113 113 2825 319225
1230	55443916 999 2554853 3507579 2379.015031478497 3534.015031478497 25 0.000128 0.002368 0.0352 6.57408e-05
1231	55444915 748 2555489 3507996 2379.798477420118 3534.798477420118 22 56 56 1232 68992
1232	55445663 748 2555490 3507997 2379.798477420118 3534.798477420118 22 64 64 1408 90112
1233	55446411 748 2555911 3508638 2380.167585422751 3535.167585422751 22 56 56 1232 68992
1234	55447159 748 2555912 3508639 2380.167585422751 3535.167585422751 22 64 64 1408 90112
1235	55447907 748 2556333 3509060 2380.231598739047 3535.231598739047 22 56 56 1232 68992
1236	55448655 748 2556334 3509061 2380.231598739047 3535.231598739047 22 64 64 1408 90112
1237	55449403 748 2556755 3509482 2380.411789582577 3535.411789582577 22 56 56 1232 68992
1238	55450151 748 2556756 3509483 2380.411789582577 3535.411789582577 22 64 64 1408 90112
1239	55450899 875 2556758 3509485 2380.411789582577 3535.411789582577 25 113 113 2825 319225
1240	55451774 1650 2556758 3509487 2380.411789582577 3535.411917582577 50 0 1 25 25
1241	55453424 875 2556760 3509487 2380.412557582577 3535.411917582577 25 113 113 2825 319225
1242	55454299 1000 2556760 3509487 2380.412557582577 3535.411917582577 25 0.000128 0.002368 0.03584 6.651904e-05
1243	55455299 748 2557179 3509906 2381.470322678797 3536.470322678797 22 56 56 1232 68992
1244	55456047 748 2557180 3509907 2381.470322678797 3536.470322678797 22 64 64 1408 90112
1245	55456795 748 2557819 3510328 2382.151687997393 3537.151687997393 22 56 56 1232 68992
1246	55457543 748 2557820 3510329 2382.151687997393 3537.151687997393 22 64 64 1408 90112
1247	55458291 748 2558461 3510750 2383.651639942545 3538.651639942545 22 56 56 1232 68992
1248	55459039 748 2558462 3510751 2383.651639942545 3538.651639942545 22 64 64 1408 90112
1249	55459787 748 2558883 3511392 2384.938461976126 3539.938461976126 22 56 56 1232 68992
1250	55460535 748 2558884 3511393 2384.938461976126 3539.938461976126 22 64 64 1408 90112
1251	55461283 748 2559305 3511814 2385.038511883467 3540.038511883467 22 56 56 1232 68992
1252	55462031 748 2559306 3511815 2385.038511883467 3540.038511883467 22 64 64 1408 90112
1253	55462779 748 2559727 3512456 2386.348907684442 3541.348907684442 22 56 56 1232 68992
1254	55463527 748 2559728 3512457 2386.348907684442 3541.348907684442 22 64 64 1408 90112
1255	55464275 748 2560148 3512877 2386.386616902892 3541.386616902892 22 56 56 1232 68992
1256	55465023 748 2560149 3512878 2386.386616902892 3541.386616902892 22 64 64 1408 90112
1257	55465771 909 2560151 3512880 2386.386616902892 3541.386616902892 26 73 113 2898 324554
1258	55466680 1716 2560151 3512882 2386.386616902892 3541.388664902892 52 0 1 26 26
1259	55468396 909 2560153 3512882 2386.388664902892 3541.388664902892 26 73 113 2898 324554
1260	55469305 1040 2560153 3512882 2386.388664902892 3541.388664902892 26 0.000128 0.002368 0.029888 4.7468544e-05
1261	55470345 748 2560572 3513301 2386.426068374421 3541.426068374421 22 56 56 1232 68992
1262	55471093 748 2560573 3513302 2386.426068374421 3541.426068374421 22 64 64 1408 90112
1263	55471841 748 2560994 3513723 2386.831515771337 3541.831515771337 22 56 56 1232 68992
1264	55472589 748 2560995 3513724 2386.831515771337 3541.831515771337 22 64 64 1408 90112
1265	55473337 748 2561414 3514143 2386.892142591532 3541.892142591532 22 56 56 1232 68992
1266	55474085 748 2561415 3514144 2386.892142591532 3541.892142591532 22 64 64 1408 90112
1267	55474833 748 2561834 3514563 2387.616768712178 3542.616768712178 22 56 56 1232 68992
1268	55475581 748 2561835 3514564 2387.616768712178 3542.616768712178 22 64 64 1408 90112
1269	55476329 704 2562256 3514985 2387.8336853371 3542.8336853371 22 56 56 1232 68992
1270	55477033 704 2562257 3514986 2387.8336853371 3542.8336853371 22 64 64 1408 90112
1271	55477737 748 2562677 3515406 2388.310591769405 3543.310591769405 22 56 56 1232 68992
1272	55478485 748 2562678 3515407 2388.310591769405 3543.310591769405 22 64 64 1408 90112
1273	55479233 908 2546609 3515409 2372.995772665367 3543.310591769405 26 73 113 2898 324554
1274	55480141 1714 2546609 3515411 2372.995772665367 3543.310719769405 52 0 1 26 26
1275	55481855 1714 2546611 3515513 2372.997500665367 3543.314719769405 52 2 3 130 338
1276	55483569 3428 2546611 3515513 2372.997500665367 3543.314719769405 104 0 2 104 156
1277	55486997 908 2546611 3515411 2372.997500665367 3543.310719769405 26 73 113 2898 324554
1278	55487905 1039 2546611 3515411 2372.997500665367 3543.310719769405 26 0.000128 0.002368 0.030528 4.7427584e-05
1279	55488944 748 2563101 3515828 2389.172343418468 3544.172343418468 22 56 56 1232 68992
1280	55489692 748 2563102 3515829 2389.172343418468 3544.172343418468 22 64 64 1408 90112
1281	55490440 748 2563523 3516250 2389.567774515599 3544.567774515599 22 56 56 1232 68992
1282	55491188 748 2563524 3516251 2389.567774515599 3544.567774515599 22 64 64 1408 90112
1283	55491936 907 2563526 3516253 2389.567774515599 3544.567774515599 26 73 113 2898 324554
1284	55492843 1712 2563526 3516255 2389.567774515599 3544.568222515599 52 0 1 26 26
1285	55494555 907 2563528 3516255 2389.568542515599 3544.568222515599 26 73 113 2898 324554
1286	55495462 1038 2563528 3516255 2389.568542515599 3544.568222515599 26 0.000128 0.002368 0.035328 6.0227584e-05
1287	55496500 748 2564163 3516674 2389.851044567768 3544.851044567768 22 56 56 1232 68992
1288	55497248 748 2564164 3516675 2389.851044567768 3544.851044567768 22 64 64 1408 90112
1289	55497996 909 2564166 3516677 2389.851044567768 3544.851044567768 26 73 113 2898 324554
1290	55498905 1716 2564166 3516679 2389.851044567768 3544.851812567768 52 0 1 26 26
1291	55500621 909 2564168 3516679 2389.852132567768 3544.851812567768 26 73 113 2898 324554
1292	55501530 1040 2564168 3516679 2389.852132567768 3544.851812567768 26 0.000128 0.002368 0.029248 4.6485504e-05
1293	55502570 748 2564585 3517096 2389.874480201397 3544.874480201397 22 56 56 1232 68992
1294	55503318 748 2564586 3517097 2389.874480201397 3544.874480201397 22 64 64 1408 90112
1295	55504066 943 2564588 3517099 2389.874480201397 3544.874480201397 27 73 113 3011 337323
1296	55505009 1780 2564588 3517101 2389.874480201397 3544.875248201397 54 0 1 27 27
1297	55506789 943 2564590 3517101 2389.876848201397 3544.875248201397 27 73 113 3011 337323
1298	55507732 1079 2564590 3517101 2389.876848201397 3544.875248201397 27 0.000128 0.002368 0.036736 6.4258048e-05
1299	55508811 139 2832896 3523137 2707.794001234695 3566.808081015945 4 73 113 412 43636
1300	55508950 264 2832896 3523139 2707.794001234695 3566.810449015945 8 0 1 4 4
1301	55509214 139 2832898 3523139 2707.796369234695 3566.810449015945 4 73 113 412 43636
1302	55509353 160 2832898 3523139 2707.796369234695 3566.810449015945 4 0.001408 0.002368 0.008192 1.7391616e-05
1304	55509513 70 2809574 3248142 2681.619533521123 3213.800843819976 2 113 113 226 25538
1305	55509583 132 2809574 3248144 2681.619533521123 3213.803211819976 4 0 1 2 2
1306	55509715 132 2809576 3248246 2681.620941521123 3213.807211819976 4 2 3 10 26
1307	55509847 704 2809576 3248246 2681.620941521123 3213.807211819976 20 0 0.1 0.22 0.02004
1308	55510551 282 2809576 3248246 2681.620941521123 3213.807211819976 6 -6.43234037564 -5.3672214670422 -35.398305112047 210.54050062774
1309	55510833 704 2809576 3248246 2681.620941521123 3213.807211819976 20 0 0.1 0.22 0.02004
1310	55511537 132 2809576 3248246 2681.620941521123 3213.807211819976 4 0 1 2 2
1311	55511669 264 2809576 3248246 2681.620941521123 3213.807211819976 8 0 2 8 12
1312	55511933 70 2809576 3248144 2681.620941521123 3213.803211819976 2 113 113 226 25538
1313	55512003 80 2809576 3248144 2681.620941521123 3213.803211819976 2 0.001408 0.002368 0.003776 7.589888e-06

