file 54357422 1780015491                                        
version 2
run _MP2P_Static_BLACKHOLE_100-999-20260528-21:42:35-11248
attr configname _MP2P_Static_BLACKHOLE_100
attr datetime 20260528-21:42:35
attr experiment _MP2P_Static_BLACKHOLE_100
attr inifile omnetpp_RPL_MP2P_100.ini
attr iterationvars ""
attr iterationvarsf ""
attr measurement ""
attr network RplNetwork100
attr processid 11248
attr repetition 999
attr replication #999
attr resultdir results
attr runnumber 999
attr seedset 999
param **.host[*].numApps 1
param **.host[*].app[0].typename "\"UdpBasicApp\""
param **.host[*].app[0].destPort 1000
param **.host[*].app[0].messageLength 56B
param **.host[*].app[0].sendInterval 55s
param **.host[*].app[0].startTime uniform(300s,400s)
param **.host[*].app[0].stopTime 3550s
param **.sink[*].numApps 1
param **.sink[*].app[0].typename "\"UdpSink\""
param **.sink[*].app[0].localPort 1000
param **.host[0..3].app[0].destAddresses "\"host[4]\""
param **.host[5..45].app[0].destAddresses "\"host[4]\""
param **.host[56..99].app[0].destAddresses "\"sink[0]\""
param **.host[4].numApps 0
param **.host[*].numApps 1
param **.host[*].app[0].typename "\"UdpBasicApp\""
param **.host[*].app[0].destAddresses "\"sink[0]\""
param **.host[*].app[0].destPort 1000
param **.host[*].app[0].messageLength 56B
param **.host[*].app[0].sendInterval 55s
param **.host[*].app[0].startTime uniform(0s,90s)
param **.sink[*].numApps 1
param **.sink[*].app[0].typename "\"UdpSink\""
param **.sink[*].app[0].localPort 1000
param **.host[*].app[0].recordStats true
param **.sink[*].app[0].recordStats true
param **.host[*].energyStorage.typename "\"IdealEpEnergyStorage\""
param **.host[*].energyStorage.nominalCapacity 1000J
param **.host[*].energyStorage.initialCapacity 1000J
param **.host[*].wlan[*].radio.energyConsumer.typename "\"StateBasedEpEnergyConsumer\""
param **.numNodes 100
param **.hasIpv6 true
param **.hasIpv4 false
param **.mtu 1500B
param **.neighbourDiscovery.raEnabled false
param **.neighbourDiscovery.addRandomDelays true
param **.neighbourDiscovery.skipDad true
param **.radioMedium.typename "\"Ieee802154NarrowbandDimensionalRadioMedium\""
param **.radio.typename "\"Ieee802154NarrowbandDimensionalRadio\""
param **.radioMedium.backgroundNoise.power -110dBm
param **.radioMedium.attenuation.typename "\"LogNormalShadowing\""
param **.radioMedium.attenuation.pathLossExponent 3.5
param **.radioMedium.attenuation.sigma 6.0
param **.wlan[*].typename "\"Ieee802154NarrowbandInterface\""
param **.wlan[*].mac.typename "\"Ieee802154Mac\""
param **.wlan[0].radio.transmitter.bitrate 250kbps
param **.wlan[0].radio.receiver.sensitivity -85dBm
param **.wlan[0].radio.transmitter.power 1mW
param **.sink[*].rpl.isRoot true
param **.sink[*].rpl.storing true
param **.rpl.numDaoRetransmitAttempts 10
param **.rpl.daoEnabled true
param **.rpl.poisoning false
param **.rpl.useBackupAsPreferred false
param **.rpl.networkProtocolModule "\"^.ipv6.ipv6\""
param **.rpl.routingTableModule "\"^.ipv6.routingTable\""
param **.rpl.drawConnectors true
param **.numSinks 1
param **.sensor[*].mobility.typename "\"StationaryMobility\""
param **.sink[*].mobility.typename "\"StationaryMobility\""
param **.mobility.constraintAreaMinX 0m
param **.mobility.constraintAreaMinY 0m
param **.mobility.constraintAreaMaxX 800m
param **.mobility.constraintAreaMaxY 800m
param *.sink[*].mobility.initialZ 0m
param *.host[*].mobility.typename "\"StationaryMobility\""
param *.host[*].mobility.initFromDisplayString false
param *.host[*].mobility.initialZ 0m
param *.sink[0].mobility.initialX 220m
param *.sink[0].mobility.initialY 180m
param *.host[0].mobility.initialX 40m
param *.host[0].mobility.initialY 0m
param *.host[1].mobility.initialX 80m
param *.host[1].mobility.initialY 0m
param *.host[2].mobility.initialX 120m
param *.host[2].mobility.initialY 0m
param *.host[3].mobility.initialX 160m
param *.host[3].mobility.initialY 0m
param *.host[4].mobility.initialX 200m
param *.host[4].mobility.initialY 0m
param *.host[5].mobility.initialX 240m
param *.host[5].mobility.initialY 0m
param *.host[6].mobility.initialX 280m
param *.host[6].mobility.initialY 0m
param *.host[7].mobility.initialX 320m
param *.host[7].mobility.initialY 0m
param *.host[8].mobility.initialX 360m
param *.host[8].mobility.initialY 0m
param *.host[9].mobility.initialX 400m
param *.host[9].mobility.initialY 0m
param *.host[10].mobility.initialX 40m
param *.host[10].mobility.initialY 40m
param *.host[11].mobility.initialX 80m
param *.host[11].mobility.initialY 40m
param *.host[12].mobility.initialX 120m
param *.host[12].mobility.initialY 40m
param *.host[13].mobility.initialX 160m
param *.host[13].mobility.initialY 40m
param *.host[14].mobility.initialX 200m
param *.host[14].mobility.initialY 40m
param *.host[15].mobility.initialX 240m
param *.host[15].mobility.initialY 40m
param *.host[16].mobility.initialX 280m
param *.host[16].mobility.initialY 40m
param *.host[17].mobility.initialX 320m
param *.host[17].mobility.initialY 40m
param *.host[18].mobility.initialX 360m
param *.host[18].mobility.initialY 40m
param *.host[19].mobility.initialX 400m
param *.host[19].mobility.initialY 40m
param *.host[20].mobility.initialX 40m
param *.host[20].mobility.initialY 80m
param *.host[21].mobility.initialX 80m
param *.host[21].mobility.initialY 80m
param *.host[22].mobility.initialX 120m
param *.host[22].mobility.initialY 80m
param *.host[23].mobility.initialX 160m
param *.host[23].mobility.initialY 80m
param *.host[24].mobility.initialX 200m
param *.host[24].mobility.initialY 80m
param *.host[25].mobility.initialX 240m
param *.host[25].mobility.initialY 80m
param *.host[26].mobility.initialX 280m
param *.host[26].mobility.initialY 80m
param *.host[27].mobility.initialX 320m
param *.host[27].mobility.initialY 80m
param *.host[28].mobility.initialX 360m
param *.host[28].mobility.initialY 80m
param *.host[29].mobility.initialX 400m
param *.host[29].mobility.initialY 80m
param *.host[30].mobility.initialX 40m
param *.host[30].mobility.initialY 120m
param *.host[31].mobility.initialX 80m
param *.host[31].mobility.initialY 120m
param *.host[32].mobility.initialX 120m
param *.host[32].mobility.initialY 120m
param *.host[33].mobility.initialX 160m
param *.host[33].mobility.initialY 120m
param *.host[34].mobility.initialX 200m
param *.host[34].mobility.initialY 120m
param *.host[35].mobility.initialX 240m
param *.host[35].mobility.initialY 120m
param *.host[36].mobility.initialX 280m
param *.host[36].mobility.initialY 120m
param *.host[37].mobility.initialX 320m
param *.host[37].mobility.initialY 120m
param *.host[38].mobility.initialX 360m
param *.host[38].mobility.initialY 120m
param *.host[39].mobility.initialX 400m
param *.host[39].mobility.initialY 120m
param *.host[40].mobility.initialX 40m
param *.host[40].mobility.initialY 160m
param *.host[41].mobility.initialX 80m
param *.host[41].mobility.initialY 160m
param *.host[42].mobility.initialX 120m
param *.host[42].mobility.initialY 160m
param *.host[43].mobility.initialX 160m
param *.host[43].mobility.initialY 160m
param *.host[44].mobility.initialX 200m
param *.host[44].mobility.initialY 160m
param *.host[45].mobility.initialX 240m
param *.host[45].mobility.initialY 160m
param *.host[46].mobility.initialX 280m
param *.host[46].mobility.initialY 160m
param *.host[47].mobility.initialX 320m
param *.host[47].mobility.initialY 160m
param *.host[48].mobility.initialX 360m
param *.host[48].mobility.initialY 160m
param *.host[49].mobility.initialX 400m
param *.host[49].mobility.initialY 160m
param *.host[50].mobility.initialX 40m
param *.host[50].mobility.initialY 200m
param *.host[51].mobility.initialX 80m
param *.host[51].mobility.initialY 200m
param *.host[52].mobility.initialX 120m
param *.host[52].mobility.initialY 200m
param *.host[53].mobility.initialX 160m
param *.host[53].mobility.initialY 200m
param *.host[55].mobility.initialX 240m
param *.host[55].mobility.initialY 200m
param *.host[56].mobility.initialX 280m
param *.host[56].mobility.initialY 200m
param *.host[57].mobility.initialX 320m
param *.host[57].mobility.initialY 200m
param *.host[58].mobility.initialX 360m
param *.host[58].mobility.initialY 200m
param *.host[59].mobility.initialX 400m
param *.host[59].mobility.initialY 200m
param *.host[60].mobility.initialX 40m
param *.host[60].mobility.initialY 240m
param *.host[61].mobility.initialX 80m
param *.host[61].mobility.initialY 240m
param *.host[62].mobility.initialX 120m
param *.host[62].mobility.initialY 240m
param *.host[63].mobility.initialX 160m
param *.host[63].mobility.initialY 240m
param *.host[64].mobility.initialX 200m
param *.host[64].mobility.initialY 240m
param *.host[65].mobility.initialX 240m
param *.host[65].mobility.initialY 240m
param *.host[66].mobility.initialX 280m
param *.host[66].mobility.initialY 240m
param *.host[67].mobility.initialX 320m
param *.host[67].mobility.initialY 240m
param *.host[68].mobility.initialX 360m
param *.host[68].mobility.initialY 240m
param *.host[69].mobility.initialX 400m
param *.host[69].mobility.initialY 240m
param *.host[70].mobility.initialX 40m
param *.host[70].mobility.initialY 280m
param *.host[71].mobility.initialX 80m
param *.host[71].mobility.initialY 280m
param *.host[72].mobility.initialX 120m
param *.host[72].mobility.initialY 280m
param *.host[73].mobility.initialX 160m
param *.host[73].mobility.initialY 280m
param *.host[74].mobility.initialX 200m
param *.host[74].mobility.initialY 280m
param *.host[75].mobility.initialX 240m
param *.host[75].mobility.initialY 280m
param *.host[76].mobility.initialX 280m
param *.host[76].mobility.initialY 280m
param *.host[77].mobility.initialX 320m
param *.host[77].mobility.initialY 280m
param *.host[78].mobility.initialX 360m
param *.host[78].mobility.initialY 280m
param *.host[79].mobility.initialX 400m
param *.host[79].mobility.initialY 280m
param *.host[80].mobility.initialX 40m
param *.host[80].mobility.initialY 320m
param *.host[81].mobility.initialX 80m
param *.host[81].mobility.initialY 320m
param *.host[82].mobility.initialX 120m
param *.host[82].mobility.initialY 320m
param *.host[83].mobility.initialX 160m
param *.host[83].mobility.initialY 320m
param *.host[84].mobility.initialX 200m
param *.host[84].mobility.initialY 320m
param *.host[85].mobility.initialX 240m
param *.host[85].mobility.initialY 320m
param *.host[86].mobility.initialX 280m
param *.host[86].mobility.initialY 320m
param *.host[87].mobility.initialX 320m
param *.host[87].mobility.initialY 320m
param *.host[88].mobility.initialX 360m
param *.host[88].mobility.initialY 320m
param *.host[89].mobility.initialX 400m
param *.host[89].mobility.initialY 320m
param *.host[90].mobility.initialX 40m
param *.host[90].mobility.initialY 360m
param *.host[91].mobility.initialX 80m
param *.host[91].mobility.initialY 360m
param *.host[92].mobility.initialX 120m
param *.host[92].mobility.initialY 360m
param *.host[93].mobility.initialX 160m
param *.host[93].mobility.initialY 360m
param *.host[94].mobility.initialX 200m
param *.host[94].mobility.initialY 360m
param *.host[95].mobility.initialX 240m
param *.host[95].mobility.initialY 360m
param *.host[96].mobility.initialX 280m
param *.host[96].mobility.initialY 360m
param *.host[97].mobility.initialX 320m
param *.host[97].mobility.initialY 360m
param *.host[98].mobility.initialX 360m
param *.host[98].mobility.initialY 360m
param *.host[99].mobility.initialX 400m
param *.host[99].mobility.initialY 360m
param **.host[*].numApps 1
param **.host[*].app[0].typename "\"UdpBasicApp\""
param **.host[*].app[0].destAddresses "\"sink[0]\""
param **.host[*].app[0].destPort 1000
param **.host[*].app[0].messageLength 56B
param **.host[*].app[0].sendInterval 55s
param **.host[*].app[0].startTime uniform(0s,90s)
param **.host[*].app[0].stopTime 3550s
param **.sink[*].numApps 1
param **.sink[*].app[0].typename "\"UdpSink\""
param **.sink[*].app[0].localPort 1000
param **.host[*].energyStorage.typename "\"IdealEpEnergyStorage\""
param **.host[*].energyStorage.nominalCapacity 1000J
param **.host[*].energyStorage.initialCapacity 1000J
param **.host[*].wlan[*].radio.energyConsumer.typename "\"StateBasedEpEnergyConsumer\""
param **.Attack[*].energyStorage.typename "\"IdealEpEnergyStorage\""
param **.Attack[*].energyStorage.nominalCapacity 1000J
param **.Attack[*].energyStorage.initialCapacity 1000J
param **.Attack[*].wlan[*].radio.energyConsumer.typename "\"StateBasedEpEnergyConsumer\""
param *.visualizer.dataLinkVisualizer[*].displayLinks true
param *.visualizer.physicalLinkVisualizer[*].displayLinks true
param *.visualizer.mediumVisualizer.displayCommunicationRanges true
param *.visualizer.networkRouteVisualizer.displayRoutes true
param *.visualizer.*.numDataLinkVisualizers 4
param *.visualizer.*.dataLinkVisualizer[*].displayLinks true
param *.visualizer.*.dataLinkVisualizer[*].activityLevel "\"peer\""
param *.visualizer.*.dataLinkVisualizer[0].packetFilter "\"UDP*\""
param *.visualizer.*.dataLinkVisualizer[0].*Color "\"blue\""
param *.visualizer.*.dataLinkVisualizer[1].packetFilter "\"DIO* or DIS* or DAO*\""
param *.visualizer.*.dataLinkVisualizer[1].*Color "\"green\""
param *.visualizer.*.dataLinkVisualizer[2].packetFilter "\"RERR* or ICMP*\""
param *.visualizer.*.dataLinkVisualizer[2].*Color "\"red\""
param *.visualizer.*.dataLinkVisualizer[3].packetFilter "\"UDP*\""
param *.visualizer.*.dataLinkVisualizer[3].*Color "\"orange\""
param **.app[*].packetSent:count.record true
param **.app[*].packetReceived:count.record true
param **.host[*].app[0].recordStats true
param **.sink[*].app[0].recordStats true
param **.endToEndDelay:vector.record true
param **.endToEndDelay:stats.record true
param **.throughput:vector.record true
param **.throughput:stats.record true

vector 0 RplNetwork100.host[57].wlan[0].mac.queue packetPushed:vector(packetBytes) ETV
attr interpolationmode none
attr title "packet pushed, vector(packetBytes)"
vector 1 RplNetwork100.host[57].wlan[0].mac.queue queueLength:vector ETV
attr interpolationmode sample-hold
attr source "count(packetPushed) - count(packetPopped) - count(packetRemoved) - count(packetDropped)"
attr title "queue length, vector"
vector 2 RplNetwork100.host[57].wlan[0].radio radioMode:vector ETV
attr interpolationmode sample-hold
attr source radioModeChanged
attr title "Radio mode, vector"
vector 3 RplNetwork100.host[57].wlan[0].radio.energyConsumer powerConsumption:vector ETV
attr interpolationmode sample-hold
attr source powerConsumptionChanged
attr title "Power consumption, vector"
vector 4 RplNetwork100.host[57].energyStorage residualEnergyCapacity:vector ETV
attr interpolationmode linear
attr source residualEnergyCapacityChanged
attr title "Residual energy capacity, vector"
vector 5 RplNetwork100.host[57].energyStorage powerConsumption:vector ETV
attr interpolationmode sample-hold
attr source powerConsumptionChanged
attr title "Power consumption, vector"
vector 6 RplNetwork100.host[57].wlan[0].radio receptionState:vector ETV
attr interpolationmode sample-hold
attr source receptionStateChanged
attr title "Radio reception state, vector"
vector 7 RplNetwork100.host[57].wlan[0].radio transmissionState:vector ETV
attr interpolationmode sample-hold
attr source transmissionStateChanged
attr title "Radio transmission state, vector"
vector 8 RplNetwork100.host[57].wlan[0].mac.queue packetPopped:vector(packetBytes) ETV
attr interpolationmode none
attr title "packet popped, vector(packetBytes)"
vector 9 RplNetwork100.host[57].wlan[0].mac.queue queueingTime:vector ETV
attr interpolationmode none
attr source queueingTime(packetPopped)
attr title "queueing times, vector"
attr unit s
vector 10 RplNetwork100.host[47].wlan[0].radio receptionState:vector ETV
attr interpolationmode sample-hold
attr source receptionStateChanged
attr title "Radio reception state, vector"
vector 11 RplNetwork100.host[47].wlan[0].radio.energyConsumer powerConsumption:vector ETV
attr interpolationmode sample-hold
attr source powerConsumptionChanged
attr title "Power consumption, vector"
vector 12 RplNetwork100.host[47].energyStorage residualEnergyCapacity:vector ETV
attr interpolationmode linear
attr source residualEnergyCapacityChanged
attr title "Residual energy capacity, vector"
vector 13 RplNetwork100.host[47].energyStorage powerConsumption:vector ETV
attr interpolationmode sample-hold
attr source powerConsumptionChanged
attr title "Power consumption, vector"
vector 14 RplNetwork100.host[56].wlan[0].radio receptionState:vector ETV
attr interpolationmode sample-hold
attr source receptionStateChanged
attr title "Radio reception state, vector"
vector 15 RplNetwork100.host[56].wlan[0].radio.energyConsumer powerConsumption:vector ETV
attr interpolationmode sample-hold
attr source powerConsumptionChanged
attr title "Power consumption, vector"
vector 16 RplNetwork100.host[56].energyStorage residualEnergyCapacity:vector ETV
attr interpolationmode linear
attr source residualEnergyCapacityChanged
attr title "Residual energy capacity, vector"
vector 17 RplNetwork100.host[56].energyStorage powerConsumption:vector ETV
attr interpolationmode sample-hold
attr source powerConsumptionChanged
attr title "Power consumption, vector"
vector 18 RplNetwork100.host[58].wlan[0].radio receptionState:vector ETV
attr interpolationmode sample-hold
attr source receptionStateChanged
attr title "Radio reception state, vector"
vector 19 RplNetwork100.host[58].wlan[0].radio.energyConsumer powerConsumption:vector ETV
attr interpolationmode sample-hold
attr source powerConsumptionChanged
attr title "Power consumption, vector"
vector 20 RplNetwork100.host[58].energyStorage residualEnergyCapacity:vector ETV
attr interpolationmode linear
attr source residualEnergyCapacityChanged
attr title "Residual energy capacity, vector"
vector 21 RplNetwork100.host[58].energyStorage powerConsumption:vector ETV
attr interpolationmode sample-hold
attr source powerConsumptionChanged
attr title "Power consumption, vector"
vector 22 RplNetwork100.host[67].wlan[0].radio receptionState:vector ETV
attr interpolationmode sample-hold
attr source receptionStateChanged
attr title "Radio reception state, vector"
vector 23 RplNetwork100.host[67].wlan[0].radio.energyConsumer powerConsumption:vector ETV
attr interpolationmode sample-hold
attr source powerConsumptionChanged
attr title "Power consumption, vector"
vector 24 RplNetwork100.host[67].energyStorage residualEnergyCapacity:vector ETV
attr interpolationmode linear
attr source residualEnergyCapacityChanged
attr title "Residual energy capacity, vector"
vector 25 RplNetwork100.host[67].energyStorage powerConsumption:vector ETV
attr interpolationmode sample-hold
attr source powerConsumptionChanged
attr title "Power consumption, vector"
vector 26 RplNetwork100.host[46].wlan[0].radio receptionState:vector ETV
attr interpolationmode sample-hold
attr source receptionStateChanged
attr title "Radio reception state, vector"
vector 27 RplNetwork100.host[46].wlan[0].radio.energyConsumer powerConsumption:vector ETV
attr interpolationmode sample-hold
attr source powerConsumptionChanged
attr title "Power consumption, vector"
vector 28 RplNetwork100.host[46].energyStorage residualEnergyCapacity:vector ETV
attr interpolationmode linear
attr source residualEnergyCapacityChanged
attr title "Residual energy capacity, vector"
vector 29 RplNetwork100.host[46].energyStorage powerConsumption:vector ETV
attr interpolationmode sample-hold
attr source powerConsumptionChanged
attr title "Power consumption, vector"
vector 30 RplNetwork100.host[48].wlan[0].radio receptionState:vector ETV
attr interpolationmode sample-hold
attr source receptionStateChanged
attr title "Radio reception state, vector"
vector 31 RplNetwork100.host[48].wlan[0].radio.energyConsumer powerConsumption:vector ETV
attr interpolationmode sample-hold
attr source powerConsumptionChanged
attr title "Power consumption, vector"
vector 32 RplNetwork100.host[48].energyStorage residualEnergyCapacity:vector ETV
attr interpolationmode linear
attr source residualEnergyCapacityChanged
attr title "Residual energy capacity, vector"
vector 33 RplNetwork100.host[48].energyStorage powerConsumption:vector ETV
attr interpolationmode sample-hold
attr source powerConsumptionChanged
attr title "Power consumption, vector"
vector 34 RplNetwork100.host[66].wlan[0].radio receptionState:vector ETV
attr interpolationmode sample-hold
attr source receptionStateChanged
attr title "Radio reception state, vector"
vector 35 RplNetwork100.host[66].wlan[0].radio.energyConsumer powerConsumption:vector ETV
attr interpolationmode sample-hold
attr source powerConsumptionChanged
attr title "Power consumption, vector"
vector 36 RplNetwork100.host[66].energyStorage residualEnergyCapacity:vector ETV
attr interpolationmode linear
attr source residualEnergyCapacityChanged
attr title "Residual energy capacity, vector"
vector 37 RplNetwork100.host[66].energyStorage powerConsumption:vector ETV
attr interpolationmode sample-hold
attr source powerConsumptionChanged
attr title "Power consumption, vector"
vector 38 RplNetwork100.host[68].wlan[0].radio receptionState:vector ETV
attr interpolationmode sample-hold
attr source receptionStateChanged
attr title "Radio reception state, vector"
vector 39 RplNetwork100.host[68].wlan[0].radio.energyConsumer powerConsumption:vector ETV
attr interpolationmode sample-hold
attr source powerConsumptionChanged
attr title "Power consumption, vector"
vector 40 RplNetwork100.host[68].energyStorage residualEnergyCapacity:vector ETV
attr interpolationmode linear
attr source residualEnergyCapacityChanged
attr title "Residual energy capacity, vector"
vector 41 RplNetwork100.host[68].energyStorage powerConsumption:vector ETV
attr interpolationmode sample-hold
attr source powerConsumptionChanged
attr title "Power consumption, vector"
vector 42 RplNetwork100.host[55].wlan[0].radio.energyConsumer powerConsumption:vector ETV
attr interpolationmode sample-hold
attr source powerConsumptionChanged
attr title "Power consumption, vector"
vector 43 RplNetwork100.host[55].energyStorage residualEnergyCapacity:vector ETV
attr interpolationmode linear
attr source residualEnergyCapacityChanged
attr title "Residual energy capacity, vector"
vector 44 RplNetwork100.host[55].energyStorage powerConsumption:vector ETV
attr interpolationmode sample-hold
attr source powerConsumptionChanged
attr title "Power consumption, vector"
vector 45 RplNetwork100.host[44].wlan[0].radio.energyConsumer powerConsumption:vector ETV
attr interpolationmode sample-hold
attr source powerConsumptionChanged
attr title "Power consumption, vector"
vector 46 RplNetwork100.host[44].energyStorage residualEnergyCapacity:vector ETV
attr interpolationmode linear
attr source residualEnergyCapacityChanged
attr title "Residual energy capacity, vector"
vector 47 RplNetwork100.host[44].energyStorage powerConsumption:vector ETV
attr interpolationmode sample-hold
attr source powerConsumptionChanged
attr title "Power consumption, vector"
vector 48 RplNetwork100.host[64].wlan[0].radio.energyConsumer powerConsumption:vector ETV
attr interpolationmode sample-hold
attr source powerConsumptionChanged
attr title "Power consumption, vector"
vector 49 RplNetwork100.host[64].energyStorage residualEnergyCapacity:vector ETV
attr interpolationmode linear
attr source residualEnergyCapacityChanged
attr title "Residual energy capacity, vector"
vector 50 RplNetwork100.host[64].energyStorage powerConsumption:vector ETV
attr interpolationmode sample-hold
attr source powerConsumptionChanged
attr title "Power consumption, vector"
vector 51 RplNetwork100.host[53].wlan[0].radio.energyConsumer powerConsumption:vector ETV
attr interpolationmode sample-hold
attr source powerConsumptionChanged
attr title "Power consumption, vector"
vector 52 RplNetwork100.host[53].energyStorage residualEnergyCapacity:vector ETV
attr interpolationmode linear
attr source residualEnergyCapacityChanged
attr title "Residual energy capacity, vector"
vector 53 RplNetwork100.host[53].energyStorage powerConsumption:vector ETV
attr interpolationmode sample-hold
attr source powerConsumptionChanged
attr title "Power consumption, vector"
vector 54 RplNetwork100.host[55].wlan[0].mac.queue packetPushed:vector(packetBytes) ETV
attr interpolationmode none
attr title "packet pushed, vector(packetBytes)"
vector 55 RplNetwork100.host[55].wlan[0].mac.queue queueLength:vector ETV
attr interpolationmode sample-hold
attr source "count(packetPushed) - count(packetPopped) - count(packetRemoved) - count(packetDropped)"
attr title "queue length, vector"
vector 56 RplNetwork100.host[55].wlan[0].radio radioMode:vector ETV
attr interpolationmode sample-hold
attr source radioModeChanged
attr title "Radio mode, vector"
vector 57 RplNetwork100.host[55].wlan[0].radio receptionState:vector ETV
attr interpolationmode sample-hold
attr source receptionStateChanged
attr title "Radio reception state, vector"
vector 58 RplNetwork100.host[55].wlan[0].radio transmissionState:vector ETV
attr interpolationmode sample-hold
attr source transmissionStateChanged
attr title "Radio transmission state, vector"
vector 59 RplNetwork100.host[55].wlan[0].mac.queue packetPopped:vector(packetBytes) ETV
attr interpolationmode none
attr title "packet popped, vector(packetBytes)"
vector 60 RplNetwork100.host[55].wlan[0].mac.queue queueingTime:vector ETV
attr interpolationmode none
attr source queueingTime(packetPopped)
attr title "queueing times, vector"
attr unit s
vector 61 RplNetwork100.sink[0].wlan[0].radio receptionState:vector ETV
attr interpolationmode sample-hold
attr source receptionStateChanged
attr title "Radio reception state, vector"
vector 62 RplNetwork100.host[45].wlan[0].radio receptionState:vector ETV
attr interpolationmode sample-hold
attr source receptionStateChanged
attr title "Radio reception state, vector"
vector 63 RplNetwork100.host[45].wlan[0].radio.energyConsumer powerConsumption:vector ETV
attr interpolationmode sample-hold
attr source powerConsumptionChanged
attr title "Power consumption, vector"
vector 64 RplNetwork100.host[45].energyStorage residualEnergyCapacity:vector ETV
attr interpolationmode linear
attr source residualEnergyCapacityChanged
attr title "Residual energy capacity, vector"
vector 65 RplNetwork100.host[45].energyStorage powerConsumption:vector ETV
attr interpolationmode sample-hold
attr source powerConsumptionChanged
attr title "Power consumption, vector"
vector 66 RplNetwork100.host[65].wlan[0].radio receptionState:vector ETV
attr interpolationmode sample-hold
attr source receptionStateChanged
attr title "Radio reception state, vector"
vector 67 RplNetwork100.host[65].wlan[0].radio.energyConsumer powerConsumption:vector ETV
attr interpolationmode sample-hold
attr source powerConsumptionChanged
attr title "Power consumption, vector"
vector 68 RplNetwork100.host[65].energyStorage residualEnergyCapacity:vector ETV
attr interpolationmode linear
attr source residualEnergyCapacityChanged
attr title "Residual energy capacity, vector"
vector 69 RplNetwork100.host[65].energyStorage powerConsumption:vector ETV
attr interpolationmode sample-hold
attr source powerConsumptionChanged
attr title "Power consumption, vector"
vector 70 RplNetwork100.host[44].wlan[0].radio receptionState:vector ETV
attr interpolationmode sample-hold
attr source receptionStateChanged
attr title "Radio reception state, vector"
vector 71 RplNetwork100.host[64].wlan[0].radio receptionState:vector ETV
attr interpolationmode sample-hold
attr source receptionStateChanged
attr title "Radio reception state, vector"
vector 72 RplNetwork100.host[63].wlan[0].mac.queue packetPushed:vector(packetBytes) ETV
attr interpolationmode none
attr title "packet pushed, vector(packetBytes)"
vector 73 RplNetwork100.host[63].wlan[0].mac.queue queueLength:vector ETV
attr interpolationmode sample-hold
attr source "count(packetPushed) - count(packetPopped) - count(packetRemoved) - count(packetDropped)"
attr title "queue length, vector"
vector 74 RplNetwork100.host[63].wlan[0].radio radioMode:vector ETV
attr interpolationmode sample-hold
attr source radioModeChanged
attr title "Radio mode, vector"
vector 75 RplNetwork100.host[63].wlan[0].radio.energyConsumer powerConsumption:vector ETV
attr interpolationmode sample-hold
attr source powerConsumptionChanged
attr title "Power consumption, vector"
vector 76 RplNetwork100.host[63].energyStorage residualEnergyCapacity:vector ETV
attr interpolationmode linear
attr source residualEnergyCapacityChanged
attr title "Residual energy capacity, vector"
vector 77 RplNetwork100.host[63].energyStorage powerConsumption:vector ETV
attr interpolationmode sample-hold
attr source powerConsumptionChanged
attr title "Power consumption, vector"
vector 78 RplNetwork100.host[63].wlan[0].radio receptionState:vector ETV
attr interpolationmode sample-hold
attr source receptionStateChanged
attr title "Radio reception state, vector"
vector 79 RplNetwork100.host[63].wlan[0].radio transmissionState:vector ETV
attr interpolationmode sample-hold
attr source transmissionStateChanged
attr title "Radio transmission state, vector"
vector 80 RplNetwork100.host[63].wlan[0].mac.queue packetPopped:vector(packetBytes) ETV
attr interpolationmode none
attr title "packet popped, vector(packetBytes)"
vector 81 RplNetwork100.host[63].wlan[0].mac.queue queueingTime:vector ETV
attr interpolationmode none
attr source queueingTime(packetPopped)
attr title "queueing times, vector"
attr unit s
vector 82 RplNetwork100.host[53].wlan[0].radio receptionState:vector ETV
attr interpolationmode sample-hold
attr source receptionStateChanged
attr title "Radio reception state, vector"
vector 83 RplNetwork100.host[62].wlan[0].radio receptionState:vector ETV
attr interpolationmode sample-hold
attr source receptionStateChanged
attr title "Radio reception state, vector"
vector 84 RplNetwork100.host[62].wlan[0].radio.energyConsumer powerConsumption:vector ETV
attr interpolationmode sample-hold
attr source powerConsumptionChanged
attr title "Power consumption, vector"
vector 85 RplNetwork100.host[62].energyStorage residualEnergyCapacity:vector ETV
attr interpolationmode linear
attr source residualEnergyCapacityChanged
attr title "Residual energy capacity, vector"
vector 86 RplNetwork100.host[62].energyStorage powerConsumption:vector ETV
attr interpolationmode sample-hold
attr source powerConsumptionChanged
attr title "Power consumption, vector"
vector 87 RplNetwork100.host[73].wlan[0].radio receptionState:vector ETV
attr interpolationmode sample-hold
attr source receptionStateChanged
attr title "Radio reception state, vector"
vector 88 RplNetwork100.host[73].wlan[0].radio.energyConsumer powerConsumption:vector ETV
attr interpolationmode sample-hold
attr source powerConsumptionChanged
attr title "Power consumption, vector"
vector 89 RplNetwork100.host[73].energyStorage residualEnergyCapacity:vector ETV
attr interpolationmode linear
attr source residualEnergyCapacityChanged
attr title "Residual energy capacity, vector"
vector 90 RplNetwork100.host[73].energyStorage powerConsumption:vector ETV
attr interpolationmode sample-hold
attr source powerConsumptionChanged
attr title "Power consumption, vector"
vector 91 RplNetwork100.host[52].wlan[0].radio receptionState:vector ETV
attr interpolationmode sample-hold
attr source receptionStateChanged
attr title "Radio reception state, vector"
vector 92 RplNetwork100.host[52].wlan[0].radio.energyConsumer powerConsumption:vector ETV
attr interpolationmode sample-hold
attr source powerConsumptionChanged
attr title "Power consumption, vector"
vector 93 RplNetwork100.host[52].energyStorage residualEnergyCapacity:vector ETV
attr interpolationmode linear
attr source residualEnergyCapacityChanged
attr title "Residual energy capacity, vector"
vector 94 RplNetwork100.host[52].energyStorage powerConsumption:vector ETV
attr interpolationmode sample-hold
attr source powerConsumptionChanged
attr title "Power consumption, vector"
vector 95 RplNetwork100.host[72].wlan[0].radio receptionState:vector ETV
attr interpolationmode sample-hold
attr source receptionStateChanged
attr title "Radio reception state, vector"
vector 96 RplNetwork100.host[72].wlan[0].radio.energyConsumer powerConsumption:vector ETV
attr interpolationmode sample-hold
attr source powerConsumptionChanged
attr title "Power consumption, vector"
vector 97 RplNetwork100.host[72].energyStorage residualEnergyCapacity:vector ETV
attr interpolationmode linear
attr source residualEnergyCapacityChanged
attr title "Residual energy capacity, vector"
vector 98 RplNetwork100.host[72].energyStorage powerConsumption:vector ETV
attr interpolationmode sample-hold
attr source powerConsumptionChanged
attr title "Power consumption, vector"
vector 99 RplNetwork100.host[74].wlan[0].radio receptionState:vector ETV
attr interpolationmode sample-hold
attr source receptionStateChanged
attr title "Radio reception state, vector"
vector 100 RplNetwork100.host[74].wlan[0].radio.energyConsumer powerConsumption:vector ETV
attr interpolationmode sample-hold
attr source powerConsumptionChanged
attr title "Power consumption, vector"
vector 101 RplNetwork100.host[74].energyStorage residualEnergyCapacity:vector ETV
attr interpolationmode linear
attr source residualEnergyCapacityChanged
attr title "Residual energy capacity, vector"
vector 102 RplNetwork100.host[74].energyStorage powerConsumption:vector ETV
attr interpolationmode sample-hold
attr source powerConsumptionChanged
attr title "Power consumption, vector"
vector 103 RplNetwork100.host[66].wlan[0].mac.queue packetPushed:vector(packetBytes) ETV
attr interpolationmode none
attr title "packet pushed, vector(packetBytes)"
vector 104 RplNetwork100.host[66].wlan[0].mac.queue queueLength:vector ETV
attr interpolationmode sample-hold
attr source "count(packetPushed) - count(packetPopped) - count(packetRemoved) - count(packetDropped)"
attr title "queue length, vector"
vector 105 RplNetwork100.host[66].wlan[0].radio radioMode:vector ETV
attr interpolationmode sample-hold
attr source radioModeChanged
attr title "Radio mode, vector"
vector 106 RplNetwork100.host[66].wlan[0].radio transmissionState:vector ETV
attr interpolationmode sample-hold
attr source transmissionStateChanged
attr title "Radio transmission state, vector"
vector 107 RplNetwork100.host[66].wlan[0].mac.queue packetPopped:vector(packetBytes) ETV
attr interpolationmode none
attr title "packet popped, vector(packetBytes)"
vector 108 RplNetwork100.host[66].wlan[0].mac.queue queueingTime:vector ETV
attr interpolationmode none
attr source queueingTime(packetPopped)
attr title "queueing times, vector"
attr unit s
vector 109 RplNetwork100.host[76].wlan[0].radio receptionState:vector ETV
attr interpolationmode sample-hold
attr source receptionStateChanged
attr title "Radio reception state, vector"
vector 110 RplNetwork100.host[76].wlan[0].radio.energyConsumer powerConsumption:vector ETV
attr interpolationmode sample-hold
attr source powerConsumptionChanged
attr title "Power consumption, vector"
vector 111 RplNetwork100.host[76].energyStorage residualEnergyCapacity:vector ETV
attr interpolationmode linear
attr source residualEnergyCapacityChanged
attr title "Residual energy capacity, vector"
vector 112 RplNetwork100.host[76].energyStorage powerConsumption:vector ETV
attr interpolationmode sample-hold
attr source powerConsumptionChanged
attr title "Power consumption, vector"
vector 113 RplNetwork100.host[75].wlan[0].radio receptionState:vector ETV
attr interpolationmode sample-hold
attr source receptionStateChanged
attr title "Radio reception state, vector"
vector 114 RplNetwork100.host[75].wlan[0].radio.energyConsumer powerConsumption:vector ETV
attr interpolationmode sample-hold
attr source powerConsumptionChanged
attr title "Power consumption, vector"
vector 115 RplNetwork100.host[75].energyStorage residualEnergyCapacity:vector ETV
attr interpolationmode linear
attr source residualEnergyCapacityChanged
attr title "Residual energy capacity, vector"
vector 116 RplNetwork100.host[75].energyStorage powerConsumption:vector ETV
attr interpolationmode sample-hold
attr source powerConsumptionChanged
attr title "Power consumption, vector"
vector 117 RplNetwork100.host[77].wlan[0].radio receptionState:vector ETV
attr interpolationmode sample-hold
attr source receptionStateChanged
attr title "Radio reception state, vector"
vector 118 RplNetwork100.host[77].wlan[0].radio.energyConsumer powerConsumption:vector ETV
attr interpolationmode sample-hold
attr source powerConsumptionChanged
attr title "Power consumption, vector"
vector 119 RplNetwork100.host[77].energyStorage residualEnergyCapacity:vector ETV
attr interpolationmode linear
attr source residualEnergyCapacityChanged
attr title "Residual energy capacity, vector"
vector 120 RplNetwork100.host[77].energyStorage powerConsumption:vector ETV
attr interpolationmode sample-hold
attr source powerConsumptionChanged
attr title "Power consumption, vector"
vector 121 RplNetwork100.host[53].wlan[0].mac.queue packetPushed:vector(packetBytes) ETV
attr interpolationmode none
attr title "packet pushed, vector(packetBytes)"
vector 122 RplNetwork100.host[53].wlan[0].mac.queue queueLength:vector ETV
attr interpolationmode sample-hold
attr source "count(packetPushed) - count(packetPopped) - count(packetRemoved) - count(packetDropped)"
attr title "queue length, vector"
vector 123 RplNetwork100.host[53].wlan[0].radio radioMode:vector ETV
attr interpolationmode sample-hold
attr source radioModeChanged
attr title "Radio mode, vector"
vector 124 RplNetwork100.host[53].wlan[0].radio transmissionState:vector ETV
attr interpolationmode sample-hold
attr source transmissionStateChanged
attr title "Radio transmission state, vector"
vector 125 RplNetwork100.host[53].wlan[0].mac.queue packetPopped:vector(packetBytes) ETV
attr interpolationmode none
attr title "packet popped, vector(packetBytes)"
vector 126 RplNetwork100.host[53].wlan[0].mac.queue queueingTime:vector ETV
attr interpolationmode none
attr source queueingTime(packetPopped)
attr title "queueing times, vector"
attr unit s
vector 127 RplNetwork100.host[43].wlan[0].radio receptionState:vector ETV
attr interpolationmode sample-hold
attr source receptionStateChanged
attr title "Radio reception state, vector"
vector 128 RplNetwork100.host[43].wlan[0].radio.energyConsumer powerConsumption:vector ETV
attr interpolationmode sample-hold
attr source powerConsumptionChanged
attr title "Power consumption, vector"
vector 129 RplNetwork100.host[43].energyStorage residualEnergyCapacity:vector ETV
attr interpolationmode linear
attr source residualEnergyCapacityChanged
attr title "Residual energy capacity, vector"
vector 130 RplNetwork100.host[43].energyStorage powerConsumption:vector ETV
attr interpolationmode sample-hold
attr source powerConsumptionChanged
attr title "Power consumption, vector"
vector 131 RplNetwork100.host[42].wlan[0].radio receptionState:vector ETV
attr interpolationmode sample-hold
attr source receptionStateChanged
attr title "Radio reception state, vector"
vector 132 RplNetwork100.host[42].wlan[0].radio.energyConsumer powerConsumption:vector ETV
attr interpolationmode sample-hold
attr source powerConsumptionChanged
attr title "Power consumption, vector"
vector 133 RplNetwork100.host[42].energyStorage residualEnergyCapacity:vector ETV
attr interpolationmode linear
attr source residualEnergyCapacityChanged
attr title "Residual energy capacity, vector"
vector 134 RplNetwork100.host[42].energyStorage powerConsumption:vector ETV
attr interpolationmode sample-hold
attr source powerConsumptionChanged
attr title "Power consumption, vector"
vector 135 RplNetwork100.host[74].wlan[0].mac.queue packetPushed:vector(packetBytes) ETV
attr interpolationmode none
attr title "packet pushed, vector(packetBytes)"
vector 136 RplNetwork100.host[74].wlan[0].mac.queue queueLength:vector ETV
attr interpolationmode sample-hold
attr source "count(packetPushed) - count(packetPopped) - count(packetRemoved) - count(packetDropped)"
attr title "queue length, vector"
vector 137 RplNetwork100.host[74].wlan[0].radio radioMode:vector ETV
attr interpolationmode sample-hold
attr source radioModeChanged
attr title "Radio mode, vector"
vector 138 RplNetwork100.host[74].wlan[0].radio transmissionState:vector ETV
attr interpolationmode sample-hold
attr source transmissionStateChanged
attr title "Radio transmission state, vector"
vector 139 RplNetwork100.host[74].wlan[0].mac.queue packetPopped:vector(packetBytes) ETV
attr interpolationmode none
attr title "packet popped, vector(packetBytes)"
vector 140 RplNetwork100.host[74].wlan[0].mac.queue queueingTime:vector ETV
attr interpolationmode none
attr source queueingTime(packetPopped)
attr title "queueing times, vector"
attr unit s
vector 141 RplNetwork100.host[84].wlan[0].radio receptionState:vector ETV
attr interpolationmode sample-hold
attr source receptionStateChanged
attr title "Radio reception state, vector"
vector 142 RplNetwork100.host[84].wlan[0].radio.energyConsumer powerConsumption:vector ETV
attr interpolationmode sample-hold
attr source powerConsumptionChanged
attr title "Power consumption, vector"
vector 143 RplNetwork100.host[84].energyStorage residualEnergyCapacity:vector ETV
attr interpolationmode linear
attr source residualEnergyCapacityChanged
attr title "Residual energy capacity, vector"
vector 144 RplNetwork100.host[84].energyStorage powerConsumption:vector ETV
attr interpolationmode sample-hold
attr source powerConsumptionChanged
attr title "Power consumption, vector"
vector 145 RplNetwork100.host[83].wlan[0].radio receptionState:vector ETV
attr interpolationmode sample-hold
attr source receptionStateChanged
attr title "Radio reception state, vector"
vector 146 RplNetwork100.host[83].wlan[0].radio.energyConsumer powerConsumption:vector ETV
attr interpolationmode sample-hold
attr source powerConsumptionChanged
attr title "Power consumption, vector"
vector 147 RplNetwork100.host[83].energyStorage residualEnergyCapacity:vector ETV
attr interpolationmode linear
attr source residualEnergyCapacityChanged
attr title "Residual energy capacity, vector"
vector 148 RplNetwork100.host[83].energyStorage powerConsumption:vector ETV
attr interpolationmode sample-hold
attr source powerConsumptionChanged
attr title "Power consumption, vector"
vector 149 RplNetwork100.host[85].wlan[0].radio receptionState:vector ETV
attr interpolationmode sample-hold
attr source receptionStateChanged
attr title "Radio reception state, vector"
vector 150 RplNetwork100.host[85].wlan[0].radio.energyConsumer powerConsumption:vector ETV
attr interpolationmode sample-hold
attr source powerConsumptionChanged
attr title "Power consumption, vector"
vector 151 RplNetwork100.host[85].energyStorage residualEnergyCapacity:vector ETV
attr interpolationmode linear
attr source residualEnergyCapacityChanged
attr title "Residual energy capacity, vector"
vector 152 RplNetwork100.host[85].energyStorage powerConsumption:vector ETV
attr interpolationmode sample-hold
attr source powerConsumptionChanged
attr title "Power consumption, vector"
vector 153 RplNetwork100.host[47].wlan[0].mac.queue packetPushed:vector(packetBytes) ETV
attr interpolationmode none
attr title "packet pushed, vector(packetBytes)"
vector 154 RplNetwork100.host[47].wlan[0].mac.queue queueLength:vector ETV
attr interpolationmode sample-hold
attr source "count(packetPushed) - count(packetPopped) - count(packetRemoved) - count(packetDropped)"
attr title "queue length, vector"
vector 155 RplNetwork100.host[47].wlan[0].radio radioMode:vector ETV
attr interpolationmode sample-hold
attr source radioModeChanged
attr title "Radio mode, vector"
vector 156 RplNetwork100.host[47].wlan[0].radio transmissionState:vector ETV
attr interpolationmode sample-hold
attr source transmissionStateChanged
attr title "Radio transmission state, vector"
vector 157 RplNetwork100.host[47].wlan[0].mac.queue packetPopped:vector(packetBytes) ETV
attr interpolationmode none
attr title "packet popped, vector(packetBytes)"
vector 158 RplNetwork100.host[47].wlan[0].mac.queue queueingTime:vector ETV
attr interpolationmode none
attr source queueingTime(packetPopped)
attr title "queueing times, vector"
attr unit s
vector 159 RplNetwork100.host[37].wlan[0].radio receptionState:vector ETV
attr interpolationmode sample-hold
attr source receptionStateChanged
attr title "Radio reception state, vector"
vector 160 RplNetwork100.host[37].wlan[0].radio.energyConsumer powerConsumption:vector ETV
attr interpolationmode sample-hold
attr source powerConsumptionChanged
attr title "Power consumption, vector"
vector 161 RplNetwork100.host[37].energyStorage residualEnergyCapacity:vector ETV
attr interpolationmode linear
attr source residualEnergyCapacityChanged
attr title "Residual energy capacity, vector"
vector 162 RplNetwork100.host[37].energyStorage powerConsumption:vector ETV
attr interpolationmode sample-hold
attr source powerConsumptionChanged
attr title "Power consumption, vector"
vector 163 RplNetwork100.host[36].wlan[0].radio receptionState:vector ETV
attr interpolationmode sample-hold
attr source receptionStateChanged
attr title "Radio reception state, vector"
vector 164 RplNetwork100.host[36].wlan[0].radio.energyConsumer powerConsumption:vector ETV
attr interpolationmode sample-hold
attr source powerConsumptionChanged
attr title "Power consumption, vector"
vector 165 RplNetwork100.host[36].energyStorage residualEnergyCapacity:vector ETV
attr interpolationmode linear
attr source residualEnergyCapacityChanged
attr title "Residual energy capacity, vector"
vector 166 RplNetwork100.host[36].energyStorage powerConsumption:vector ETV
attr interpolationmode sample-hold
attr source powerConsumptionChanged
attr title "Power consumption, vector"
vector 167 RplNetwork100.host[38].wlan[0].radio receptionState:vector ETV
attr interpolationmode sample-hold
attr source receptionStateChanged
attr title "Radio reception state, vector"
vector 168 RplNetwork100.host[38].wlan[0].radio.energyConsumer powerConsumption:vector ETV
attr interpolationmode sample-hold
attr source powerConsumptionChanged
attr title "Power consumption, vector"
vector 169 RplNetwork100.host[38].energyStorage residualEnergyCapacity:vector ETV
attr interpolationmode linear
attr source residualEnergyCapacityChanged
attr title "Residual energy capacity, vector"
vector 170 RplNetwork100.host[38].energyStorage powerConsumption:vector ETV
attr interpolationmode sample-hold
attr source powerConsumptionChanged
attr title "Power consumption, vector"
vector 171 RplNetwork100.host[14].wlan[0].mac.queue packetPushed:vector(packetBytes) ETV
attr interpolationmode none
attr title "packet pushed, vector(packetBytes)"
vector 172 RplNetwork100.host[14].wlan[0].mac.queue queueLength:vector ETV
attr interpolationmode sample-hold
attr source "count(packetPushed) - count(packetPopped) - count(packetRemoved) - count(packetDropped)"
attr title "queue length, vector"
vector 173 RplNetwork100.host[14].wlan[0].radio radioMode:vector ETV
attr interpolationmode sample-hold
attr source radioModeChanged
attr title "Radio mode, vector"
vector 174 RplNetwork100.host[14].wlan[0].radio.energyConsumer powerConsumption:vector ETV
attr interpolationmode sample-hold
attr source powerConsumptionChanged
attr title "Power consumption, vector"
vector 175 RplNetwork100.host[14].energyStorage residualEnergyCapacity:vector ETV
attr interpolationmode linear
attr source residualEnergyCapacityChanged
attr title "Residual energy capacity, vector"
vector 176 RplNetwork100.host[14].energyStorage powerConsumption:vector ETV
attr interpolationmode sample-hold
attr source powerConsumptionChanged
attr title "Power consumption, vector"
vector 177 RplNetwork100.host[14].wlan[0].radio receptionState:vector ETV
attr interpolationmode sample-hold
attr source receptionStateChanged
attr title "Radio reception state, vector"
vector 178 RplNetwork100.host[14].wlan[0].radio transmissionState:vector ETV
attr interpolationmode sample-hold
attr source transmissionStateChanged
attr title "Radio transmission state, vector"
vector 179 RplNetwork100.host[14].wlan[0].mac.queue packetPopped:vector(packetBytes) ETV
attr interpolationmode none
attr title "packet popped, vector(packetBytes)"
vector 180 RplNetwork100.host[14].wlan[0].mac.queue queueingTime:vector ETV
attr interpolationmode none
attr source queueingTime(packetPopped)
attr title "queueing times, vector"
attr unit s
vector 181 RplNetwork100.host[4].wlan[0].radio receptionState:vector ETV
attr interpolationmode sample-hold
attr source receptionStateChanged
attr title "Radio reception state, vector"
vector 182 RplNetwork100.host[4].wlan[0].radio.energyConsumer powerConsumption:vector ETV
attr interpolationmode sample-hold
attr source powerConsumptionChanged
attr title "Power consumption, vector"
vector 183 RplNetwork100.host[4].energyStorage residualEnergyCapacity:vector ETV
attr interpolationmode linear
attr source residualEnergyCapacityChanged
attr title "Residual energy capacity, vector"
vector 184 RplNetwork100.host[4].energyStorage powerConsumption:vector ETV
attr interpolationmode sample-hold
attr source powerConsumptionChanged
attr title "Power consumption, vector"
vector 185 RplNetwork100.host[13].wlan[0].radio receptionState:vector ETV
attr interpolationmode sample-hold
attr source receptionStateChanged
attr title "Radio reception state, vector"
vector 186 RplNetwork100.host[13].wlan[0].radio.energyConsumer powerConsumption:vector ETV
attr interpolationmode sample-hold
attr source powerConsumptionChanged
attr title "Power consumption, vector"
vector 187 RplNetwork100.host[13].energyStorage residualEnergyCapacity:vector ETV
attr interpolationmode linear
attr source residualEnergyCapacityChanged
attr title "Residual energy capacity, vector"
vector 188 RplNetwork100.host[13].energyStorage powerConsumption:vector ETV
attr interpolationmode sample-hold
attr source powerConsumptionChanged
attr title "Power consumption, vector"
vector 189 RplNetwork100.host[15].wlan[0].radio receptionState:vector ETV
attr interpolationmode sample-hold
attr source receptionStateChanged
attr title "Radio reception state, vector"
vector 190 RplNetwork100.host[15].wlan[0].radio.energyConsumer powerConsumption:vector ETV
attr interpolationmode sample-hold
attr source powerConsumptionChanged
attr title "Power consumption, vector"
vector 191 RplNetwork100.host[15].energyStorage residualEnergyCapacity:vector ETV
attr interpolationmode linear
attr source residualEnergyCapacityChanged
attr title "Residual energy capacity, vector"
vector 192 RplNetwork100.host[15].energyStorage powerConsumption:vector ETV
attr interpolationmode sample-hold
attr source powerConsumptionChanged
attr title "Power consumption, vector"
vector 193 RplNetwork100.host[24].wlan[0].radio receptionState:vector ETV
attr interpolationmode sample-hold
attr source receptionStateChanged
attr title "Radio reception state, vector"
vector 194 RplNetwork100.host[24].wlan[0].radio.energyConsumer powerConsumption:vector ETV
attr interpolationmode sample-hold
attr source powerConsumptionChanged
attr title "Power consumption, vector"
vector 195 RplNetwork100.host[24].energyStorage residualEnergyCapacity:vector ETV
attr interpolationmode linear
attr source residualEnergyCapacityChanged
attr title "Residual energy capacity, vector"
vector 196 RplNetwork100.host[24].energyStorage powerConsumption:vector ETV
attr interpolationmode sample-hold
attr source powerConsumptionChanged
attr title "Power consumption, vector"
vector 197 RplNetwork100.host[3].wlan[0].radio receptionState:vector ETV
attr interpolationmode sample-hold
attr source receptionStateChanged
attr title "Radio reception state, vector"
vector 198 RplNetwork100.host[3].wlan[0].radio.energyConsumer powerConsumption:vector ETV
attr interpolationmode sample-hold
attr source powerConsumptionChanged
attr title "Power consumption, vector"
vector 199 RplNetwork100.host[3].energyStorage residualEnergyCapacity:vector ETV
attr interpolationmode linear
attr source residualEnergyCapacityChanged
attr title "Residual energy capacity, vector"
vector 200 RplNetwork100.host[3].energyStorage powerConsumption:vector ETV
attr interpolationmode sample-hold
attr source powerConsumptionChanged
attr title "Power consumption, vector"
vector 201 RplNetwork100.host[5].wlan[0].radio receptionState:vector ETV
attr interpolationmode sample-hold
attr source receptionStateChanged
attr title "Radio reception state, vector"
vector 202 RplNetwork100.host[5].wlan[0].radio.energyConsumer powerConsumption:vector ETV
attr interpolationmode sample-hold
attr source powerConsumptionChanged
attr title "Power consumption, vector"
vector 203 RplNetwork100.host[5].energyStorage residualEnergyCapacity:vector ETV
attr interpolationmode linear
attr source residualEnergyCapacityChanged
attr title "Residual energy capacity, vector"
vector 204 RplNetwork100.host[5].energyStorage powerConsumption:vector ETV
attr interpolationmode sample-hold
attr source powerConsumptionChanged
attr title "Power consumption, vector"
vector 205 RplNetwork100.host[23].wlan[0].radio receptionState:vector ETV
attr interpolationmode sample-hold
attr source receptionStateChanged
attr title "Radio reception state, vector"
vector 206 RplNetwork100.host[23].wlan[0].radio.energyConsumer powerConsumption:vector ETV
attr interpolationmode sample-hold
attr source powerConsumptionChanged
attr title "Power consumption, vector"
vector 207 RplNetwork100.host[23].energyStorage residualEnergyCapacity:vector ETV
attr interpolationmode linear
attr source residualEnergyCapacityChanged
attr title "Residual energy capacity, vector"
vector 208 RplNetwork100.host[23].energyStorage powerConsumption:vector ETV
attr interpolationmode sample-hold
attr source powerConsumptionChanged
attr title "Power consumption, vector"
vector 209 RplNetwork100.host[25].wlan[0].radio receptionState:vector ETV
attr interpolationmode sample-hold
attr source receptionStateChanged
attr title "Radio reception state, vector"
vector 210 RplNetwork100.host[25].wlan[0].radio.energyConsumer powerConsumption:vector ETV
attr interpolationmode sample-hold
attr source powerConsumptionChanged
attr title "Power consumption, vector"
vector 211 RplNetwork100.host[25].energyStorage residualEnergyCapacity:vector ETV
attr interpolationmode linear
attr source residualEnergyCapacityChanged
attr title "Residual energy capacity, vector"
vector 212 RplNetwork100.host[25].energyStorage powerConsumption:vector ETV
attr interpolationmode sample-hold
attr source powerConsumptionChanged
attr title "Power consumption, vector"
vector 213 RplNetwork100.host[75].wlan[0].mac.queue packetPushed:vector(packetBytes) ETV
attr interpolationmode none
attr title "packet pushed, vector(packetBytes)"
vector 214 RplNetwork100.host[75].wlan[0].mac.queue queueLength:vector ETV
attr interpolationmode sample-hold
attr source "count(packetPushed) - count(packetPopped) - count(packetRemoved) - count(packetDropped)"
attr title "queue length, vector"
vector 215 RplNetwork100.host[75].wlan[0].radio radioMode:vector ETV
attr interpolationmode sample-hold
attr source radioModeChanged
attr title "Radio mode, vector"
vector 216 RplNetwork100.host[75].wlan[0].radio transmissionState:vector ETV
attr interpolationmode sample-hold
attr source transmissionStateChanged
attr title "Radio transmission state, vector"
vector 217 RplNetwork100.host[75].wlan[0].mac.queue packetPopped:vector(packetBytes) ETV
attr interpolationmode none
attr title "packet popped, vector(packetBytes)"
vector 218 RplNetwork100.host[75].wlan[0].mac.queue queueingTime:vector ETV
attr interpolationmode none
attr source queueingTime(packetPopped)
attr title "queueing times, vector"
attr unit s
vector 219 RplNetwork100.host[86].wlan[0].radio receptionState:vector ETV
attr interpolationmode sample-hold
attr source receptionStateChanged
attr title "Radio reception state, vector"
vector 220 RplNetwork100.host[86].wlan[0].radio.energyConsumer powerConsumption:vector ETV
attr interpolationmode sample-hold
attr source powerConsumptionChanged
attr title "Power consumption, vector"
vector 221 RplNetwork100.host[86].energyStorage residualEnergyCapacity:vector ETV
attr interpolationmode linear
attr source residualEnergyCapacityChanged
attr title "Residual energy capacity, vector"
vector 222 RplNetwork100.host[86].energyStorage powerConsumption:vector ETV
attr interpolationmode sample-hold
attr source powerConsumptionChanged
attr title "Power consumption, vector"
vector 223 RplNetwork100.host[76].wlan[0].mac.queue packetPushed:vector(packetBytes) ETV
attr interpolationmode none
attr title "packet pushed, vector(packetBytes)"
vector 224 RplNetwork100.host[76].wlan[0].mac.queue queueLength:vector ETV
attr interpolationmode sample-hold
attr source "count(packetPushed) - count(packetPopped) - count(packetRemoved) - count(packetDropped)"
attr title "queue length, vector"
vector 225 RplNetwork100.host[76].wlan[0].radio radioMode:vector ETV
attr interpolationmode sample-hold
attr source radioModeChanged
attr title "Radio mode, vector"
vector 226 RplNetwork100.host[76].wlan[0].radio transmissionState:vector ETV
attr interpolationmode sample-hold
attr source transmissionStateChanged
attr title "Radio transmission state, vector"
vector 227 RplNetwork100.host[76].wlan[0].mac.queue packetPopped:vector(packetBytes) ETV
attr interpolationmode none
attr title "packet popped, vector(packetBytes)"
vector 228 RplNetwork100.host[76].wlan[0].mac.queue queueingTime:vector ETV
attr interpolationmode none
attr source queueingTime(packetPopped)
attr title "queueing times, vector"
attr unit s
vector 229 RplNetwork100.host[87].wlan[0].radio receptionState:vector ETV
attr interpolationmode sample-hold
attr source receptionStateChanged
attr title "Radio reception state, vector"
vector 230 RplNetwork100.host[87].wlan[0].radio.energyConsumer powerConsumption:vector ETV
attr interpolationmode sample-hold
attr source powerConsumptionChanged
attr title "Power consumption, vector"
vector 231 RplNetwork100.host[87].energyStorage residualEnergyCapacity:vector ETV
attr interpolationmode linear
attr source residualEnergyCapacityChanged
attr title "Residual energy capacity, vector"
vector 232 RplNetwork100.host[87].energyStorage powerConsumption:vector ETV
attr interpolationmode sample-hold
attr source powerConsumptionChanged
attr title "Power consumption, vector"
vector 233 RplNetwork100.host[95].wlan[0].mac.queue packetPushed:vector(packetBytes) ETV
attr interpolationmode none
attr title "packet pushed, vector(packetBytes)"
vector 234 RplNetwork100.host[95].wlan[0].mac.queue queueLength:vector ETV
attr interpolationmode sample-hold
attr source "count(packetPushed) - count(packetPopped) - count(packetRemoved) - count(packetDropped)"
attr title "queue length, vector"
vector 235 RplNetwork100.host[95].wlan[0].radio radioMode:vector ETV
attr interpolationmode sample-hold
attr source radioModeChanged
attr title "Radio mode, vector"
vector 236 RplNetwork100.host[95].wlan[0].radio.energyConsumer powerConsumption:vector ETV
attr interpolationmode sample-hold
attr source powerConsumptionChanged
attr title "Power consumption, vector"
vector 237 RplNetwork100.host[95].energyStorage residualEnergyCapacity:vector ETV
attr interpolationmode linear
attr source residualEnergyCapacityChanged
attr title "Residual energy capacity, vector"
vector 238 RplNetwork100.host[95].energyStorage powerConsumption:vector ETV
attr interpolationmode sample-hold
attr source powerConsumptionChanged
attr title "Power consumption, vector"
vector 239 RplNetwork100.host[95].wlan[0].radio receptionState:vector ETV
attr interpolationmode sample-hold
attr source receptionStateChanged
attr title "Radio reception state, vector"
vector 240 RplNetwork100.host[95].wlan[0].radio transmissionState:vector ETV
attr interpolationmode sample-hold
attr source transmissionStateChanged
attr title "Radio transmission state, vector"
vector 241 RplNetwork100.host[95].wlan[0].mac.queue packetPopped:vector(packetBytes) ETV
attr interpolationmode none
attr title "packet popped, vector(packetBytes)"
vector 242 RplNetwork100.host[95].wlan[0].mac.queue queueingTime:vector ETV
attr interpolationmode none
attr source queueingTime(packetPopped)
attr title "queueing times, vector"
attr unit s
vector 243 RplNetwork100.host[94].wlan[0].radio receptionState:vector ETV
attr interpolationmode sample-hold
attr source receptionStateChanged
attr title "Radio reception state, vector"
vector 244 RplNetwork100.host[94].wlan[0].radio.energyConsumer powerConsumption:vector ETV
attr interpolationmode sample-hold
attr source powerConsumptionChanged
attr title "Power consumption, vector"
vector 245 RplNetwork100.host[94].energyStorage residualEnergyCapacity:vector ETV
attr interpolationmode linear
attr source residualEnergyCapacityChanged
attr title "Residual energy capacity, vector"
vector 246 RplNetwork100.host[94].energyStorage powerConsumption:vector ETV
attr interpolationmode sample-hold
attr source powerConsumptionChanged
attr title "Power consumption, vector"
vector 247 RplNetwork100.host[96].wlan[0].radio receptionState:vector ETV
attr interpolationmode sample-hold
attr source receptionStateChanged
attr title "Radio reception state, vector"
vector 248 RplNetwork100.host[96].wlan[0].radio.energyConsumer powerConsumption:vector ETV
attr interpolationmode sample-hold
attr source powerConsumptionChanged
attr title "Power consumption, vector"
vector 249 RplNetwork100.host[96].energyStorage residualEnergyCapacity:vector ETV
attr interpolationmode linear
attr source residualEnergyCapacityChanged
attr title "Residual energy capacity, vector"
vector 250 RplNetwork100.host[96].energyStorage powerConsumption:vector ETV
attr interpolationmode sample-hold
attr source powerConsumptionChanged
attr title "Power consumption, vector"
vector 251 RplNetwork100.host[51].wlan[0].mac.queue packetPushed:vector(packetBytes) ETV
attr interpolationmode none
attr title "packet pushed, vector(packetBytes)"
vector 252 RplNetwork100.host[51].wlan[0].mac.queue queueLength:vector ETV
attr interpolationmode sample-hold
attr source "count(packetPushed) - count(packetPopped) - count(packetRemoved) - count(packetDropped)"
attr title "queue length, vector"
vector 253 RplNetwork100.host[51].wlan[0].radio radioMode:vector ETV
attr interpolationmode sample-hold
attr source radioModeChanged
attr title "Radio mode, vector"
vector 254 RplNetwork100.host[51].wlan[0].radio.energyConsumer powerConsumption:vector ETV
attr interpolationmode sample-hold
attr source powerConsumptionChanged
attr title "Power consumption, vector"
vector 255 RplNetwork100.host[51].energyStorage residualEnergyCapacity:vector ETV
attr interpolationmode linear
attr source residualEnergyCapacityChanged
attr title "Residual energy capacity, vector"
vector 256 RplNetwork100.host[51].energyStorage powerConsumption:vector ETV
attr interpolationmode sample-hold
attr source powerConsumptionChanged
attr title "Power consumption, vector"
vector 257 RplNetwork100.host[51].wlan[0].radio receptionState:vector ETV
attr interpolationmode sample-hold
attr source receptionStateChanged
attr title "Radio reception state, vector"
vector 258 RplNetwork100.host[51].wlan[0].radio transmissionState:vector ETV
attr interpolationmode sample-hold
attr source transmissionStateChanged
attr title "Radio transmission state, vector"
vector 259 RplNetwork100.host[51].wlan[0].mac.queue packetPopped:vector(packetBytes) ETV
attr interpolationmode none
attr title "packet popped, vector(packetBytes)"
vector 260 RplNetwork100.host[51].wlan[0].mac.queue queueingTime:vector ETV
attr interpolationmode none
attr source queueingTime(packetPopped)
attr title "queueing times, vector"
attr unit s
vector 261 RplNetwork100.host[41].wlan[0].radio receptionState:vector ETV
attr interpolationmode sample-hold
attr source receptionStateChanged
attr title "Radio reception state, vector"
vector 262 RplNetwork100.host[41].wlan[0].radio.energyConsumer powerConsumption:vector ETV
attr interpolationmode sample-hold
attr source powerConsumptionChanged
attr title "Power consumption, vector"
vector 263 RplNetwork100.host[41].energyStorage residualEnergyCapacity:vector ETV
attr interpolationmode linear
attr source residualEnergyCapacityChanged
attr title "Residual energy capacity, vector"
vector 264 RplNetwork100.host[41].energyStorage powerConsumption:vector ETV
attr interpolationmode sample-hold
attr source powerConsumptionChanged
attr title "Power consumption, vector"
vector 265 RplNetwork100.host[50].wlan[0].radio receptionState:vector ETV
attr interpolationmode sample-hold
attr source receptionStateChanged
attr title "Radio reception state, vector"
vector 266 RplNetwork100.host[50].wlan[0].radio.energyConsumer powerConsumption:vector ETV
attr interpolationmode sample-hold
attr source powerConsumptionChanged
attr title "Power consumption, vector"
vector 267 RplNetwork100.host[50].energyStorage residualEnergyCapacity:vector ETV
attr interpolationmode linear
attr source residualEnergyCapacityChanged
attr title "Residual energy capacity, vector"
vector 268 RplNetwork100.host[50].energyStorage powerConsumption:vector ETV
attr interpolationmode sample-hold
attr source powerConsumptionChanged
attr title "Power consumption, vector"
vector 269 RplNetwork100.host[61].wlan[0].radio receptionState:vector ETV
attr interpolationmode sample-hold
attr source receptionStateChanged
attr title "Radio reception state, vector"
vector 270 RplNetwork100.host[61].wlan[0].radio.energyConsumer powerConsumption:vector ETV
attr interpolationmode sample-hold
attr source powerConsumptionChanged
attr title "Power consumption, vector"
vector 271 RplNetwork100.host[61].energyStorage residualEnergyCapacity:vector ETV
attr interpolationmode linear
attr source residualEnergyCapacityChanged
attr title "Residual energy capacity, vector"
vector 272 RplNetwork100.host[61].energyStorage powerConsumption:vector ETV
attr interpolationmode sample-hold
attr source powerConsumptionChanged
attr title "Power consumption, vector"
vector 273 RplNetwork100.host[40].wlan[0].radio receptionState:vector ETV
attr interpolationmode sample-hold
attr source receptionStateChanged
attr title "Radio reception state, vector"
vector 274 RplNetwork100.host[40].wlan[0].radio.energyConsumer powerConsumption:vector ETV
attr interpolationmode sample-hold
attr source powerConsumptionChanged
attr title "Power consumption, vector"
vector 275 RplNetwork100.host[40].energyStorage residualEnergyCapacity:vector ETV
attr interpolationmode linear
attr source residualEnergyCapacityChanged
attr title "Residual energy capacity, vector"
vector 276 RplNetwork100.host[40].energyStorage powerConsumption:vector ETV
attr interpolationmode sample-hold
attr source powerConsumptionChanged
attr title "Power consumption, vector"
vector 277 RplNetwork100.host[60].wlan[0].radio receptionState:vector ETV
attr interpolationmode sample-hold
attr source receptionStateChanged
attr title "Radio reception state, vector"
vector 278 RplNetwork100.host[60].wlan[0].radio.energyConsumer powerConsumption:vector ETV
attr interpolationmode sample-hold
attr source powerConsumptionChanged
attr title "Power consumption, vector"
vector 279 RplNetwork100.host[60].energyStorage residualEnergyCapacity:vector ETV
attr interpolationmode linear
attr source residualEnergyCapacityChanged
attr title "Residual energy capacity, vector"
vector 280 RplNetwork100.host[60].energyStorage powerConsumption:vector ETV
attr interpolationmode sample-hold
attr source powerConsumptionChanged
attr title "Power consumption, vector"
vector 281 RplNetwork100.host[40].wlan[0].mac.queue packetPushed:vector(packetBytes) ETV
attr interpolationmode none
attr title "packet pushed, vector(packetBytes)"
vector 282 RplNetwork100.host[40].wlan[0].mac.queue queueLength:vector ETV
attr interpolationmode sample-hold
attr source "count(packetPushed) - count(packetPopped) - count(packetRemoved) - count(packetDropped)"
attr title "queue length, vector"
vector 283 RplNetwork100.host[40].wlan[0].radio radioMode:vector ETV
attr interpolationmode sample-hold
attr source radioModeChanged
attr title "Radio mode, vector"
vector 284 RplNetwork100.host[40].wlan[0].radio transmissionState:vector ETV
attr interpolationmode sample-hold
attr source transmissionStateChanged
attr title "Radio transmission state, vector"
vector 285 RplNetwork100.host[40].wlan[0].mac.queue packetPopped:vector(packetBytes) ETV
attr interpolationmode none
attr title "packet popped, vector(packetBytes)"
vector 286 RplNetwork100.host[40].wlan[0].mac.queue queueingTime:vector ETV
attr interpolationmode none
attr source queueingTime(packetPopped)
attr title "queueing times, vector"
attr unit s
vector 287 RplNetwork100.host[30].wlan[0].radio receptionState:vector ETV
attr interpolationmode sample-hold
attr source receptionStateChanged
attr title "Radio reception state, vector"
vector 288 RplNetwork100.host[30].wlan[0].radio.energyConsumer powerConsumption:vector ETV
attr interpolationmode sample-hold
attr source powerConsumptionChanged
attr title "Power consumption, vector"
vector 289 RplNetwork100.host[30].energyStorage residualEnergyCapacity:vector ETV
attr interpolationmode linear
attr source residualEnergyCapacityChanged
attr title "Residual energy capacity, vector"
vector 290 RplNetwork100.host[30].energyStorage powerConsumption:vector ETV
attr interpolationmode sample-hold
attr source powerConsumptionChanged
attr title "Power consumption, vector"
vector 291 RplNetwork100.host[31].wlan[0].radio receptionState:vector ETV
attr interpolationmode sample-hold
attr source receptionStateChanged
attr title "Radio reception state, vector"
vector 292 RplNetwork100.host[31].wlan[0].radio.energyConsumer powerConsumption:vector ETV
attr interpolationmode sample-hold
attr source powerConsumptionChanged
attr title "Power consumption, vector"
vector 293 RplNetwork100.host[31].energyStorage residualEnergyCapacity:vector ETV
attr interpolationmode linear
attr source residualEnergyCapacityChanged
attr title "Residual energy capacity, vector"
vector 294 RplNetwork100.host[31].energyStorage powerConsumption:vector ETV
attr interpolationmode sample-hold
attr source powerConsumptionChanged
attr title "Power consumption, vector"
vector 295 RplNetwork100.host[34].wlan[0].mac.queue packetPushed:vector(packetBytes) ETV
attr interpolationmode none
attr title "packet pushed, vector(packetBytes)"
vector 296 RplNetwork100.host[34].wlan[0].mac.queue queueLength:vector ETV
attr interpolationmode sample-hold
attr source "count(packetPushed) - count(packetPopped) - count(packetRemoved) - count(packetDropped)"
attr title "queue length, vector"
vector 297 RplNetwork100.host[34].wlan[0].radio radioMode:vector ETV
attr interpolationmode sample-hold
attr source radioModeChanged
attr title "Radio mode, vector"
vector 298 RplNetwork100.host[34].wlan[0].radio.energyConsumer powerConsumption:vector ETV
attr interpolationmode sample-hold
attr source powerConsumptionChanged
attr title "Power consumption, vector"
vector 299 RplNetwork100.host[34].energyStorage residualEnergyCapacity:vector ETV
attr interpolationmode linear
attr source residualEnergyCapacityChanged
attr title "Residual energy capacity, vector"
vector 300 RplNetwork100.host[34].energyStorage powerConsumption:vector ETV
attr interpolationmode sample-hold
attr source powerConsumptionChanged
attr title "Power consumption, vector"
vector 301 RplNetwork100.host[34].wlan[0].radio receptionState:vector ETV
attr interpolationmode sample-hold
attr source receptionStateChanged
attr title "Radio reception state, vector"
vector 302 RplNetwork100.host[34].wlan[0].radio transmissionState:vector ETV
attr interpolationmode sample-hold
attr source transmissionStateChanged
attr title "Radio transmission state, vector"
vector 303 RplNetwork100.host[34].wlan[0].mac.queue packetPopped:vector(packetBytes) ETV
attr interpolationmode none
attr title "packet popped, vector(packetBytes)"
vector 304 RplNetwork100.host[34].wlan[0].mac.queue queueingTime:vector ETV
attr interpolationmode none
attr source queueingTime(packetPopped)
attr title "queueing times, vector"
attr unit s
vector 305 RplNetwork100.host[33].wlan[0].radio receptionState:vector ETV
attr interpolationmode sample-hold
attr source receptionStateChanged
attr title "Radio reception state, vector"
vector 306 RplNetwork100.host[33].wlan[0].radio.energyConsumer powerConsumption:vector ETV
attr interpolationmode sample-hold
attr source powerConsumptionChanged
attr title "Power consumption, vector"
vector 307 RplNetwork100.host[33].energyStorage residualEnergyCapacity:vector ETV
attr interpolationmode linear
attr source residualEnergyCapacityChanged
attr title "Residual energy capacity, vector"
vector 308 RplNetwork100.host[33].energyStorage powerConsumption:vector ETV
attr interpolationmode sample-hold
attr source powerConsumptionChanged
attr title "Power consumption, vector"
vector 309 RplNetwork100.host[35].wlan[0].radio receptionState:vector ETV
attr interpolationmode sample-hold
attr source receptionStateChanged
attr title "Radio reception state, vector"
vector 310 RplNetwork100.host[35].wlan[0].radio.energyConsumer powerConsumption:vector ETV
attr interpolationmode sample-hold
attr source powerConsumptionChanged
attr title "Power consumption, vector"
vector 311 RplNetwork100.host[35].energyStorage residualEnergyCapacity:vector ETV
attr interpolationmode linear
attr source residualEnergyCapacityChanged
attr title "Residual energy capacity, vector"
vector 312 RplNetwork100.host[35].energyStorage powerConsumption:vector ETV
attr interpolationmode sample-hold
attr source powerConsumptionChanged
attr title "Power consumption, vector"
vector 313 RplNetwork100.host[68].wlan[0].mac.queue packetPushed:vector(packetBytes) ETV
attr interpolationmode none
attr title "packet pushed, vector(packetBytes)"
vector 314 RplNetwork100.host[68].wlan[0].mac.queue queueLength:vector ETV
attr interpolationmode sample-hold
attr source "count(packetPushed) - count(packetPopped) - count(packetRemoved) - count(packetDropped)"
attr title "queue length, vector"
vector 315 RplNetwork100.host[68].wlan[0].radio radioMode:vector ETV
attr interpolationmode sample-hold
attr source radioModeChanged
attr title "Radio mode, vector"
vector 316 RplNetwork100.host[68].wlan[0].radio transmissionState:vector ETV
attr interpolationmode sample-hold
attr source transmissionStateChanged
attr title "Radio transmission state, vector"
vector 317 RplNetwork100.host[68].wlan[0].mac.queue packetPopped:vector(packetBytes) ETV
attr interpolationmode none
attr title "packet popped, vector(packetBytes)"
vector 318 RplNetwork100.host[68].wlan[0].mac.queue queueingTime:vector ETV
attr interpolationmode none
attr source queueingTime(packetPopped)
attr title "queueing times, vector"
attr unit s
vector 319 RplNetwork100.host[69].wlan[0].radio receptionState:vector ETV
attr interpolationmode sample-hold
attr source receptionStateChanged
attr title "Radio reception state, vector"
vector 320 RplNetwork100.host[69].wlan[0].radio.energyConsumer powerConsumption:vector ETV
attr interpolationmode sample-hold
attr source powerConsumptionChanged
attr title "Power consumption, vector"
vector 321 RplNetwork100.host[69].energyStorage residualEnergyCapacity:vector ETV
attr interpolationmode linear
attr source residualEnergyCapacityChanged
attr title "Residual energy capacity, vector"
vector 322 RplNetwork100.host[69].energyStorage powerConsumption:vector ETV
attr interpolationmode sample-hold
attr source powerConsumptionChanged
attr title "Power consumption, vector"
vector 323 RplNetwork100.host[78].wlan[0].radio receptionState:vector ETV
attr interpolationmode sample-hold
attr source receptionStateChanged
attr title "Radio reception state, vector"
vector 324 RplNetwork100.host[78].wlan[0].radio.energyConsumer powerConsumption:vector ETV
attr interpolationmode sample-hold
attr source powerConsumptionChanged
attr title "Power consumption, vector"
vector 325 RplNetwork100.host[78].energyStorage residualEnergyCapacity:vector ETV
attr interpolationmode linear
attr source residualEnergyCapacityChanged
attr title "Residual energy capacity, vector"
vector 326 RplNetwork100.host[78].energyStorage powerConsumption:vector ETV
attr interpolationmode sample-hold
attr source powerConsumptionChanged
attr title "Power consumption, vector"
vector 327 RplNetwork100.host[59].wlan[0].radio receptionState:vector ETV
attr interpolationmode sample-hold
attr source receptionStateChanged
attr title "Radio reception state, vector"
vector 328 RplNetwork100.host[59].wlan[0].radio.energyConsumer powerConsumption:vector ETV
attr interpolationmode sample-hold
attr source powerConsumptionChanged
attr title "Power consumption, vector"
vector 329 RplNetwork100.host[59].energyStorage residualEnergyCapacity:vector ETV
attr interpolationmode linear
attr source residualEnergyCapacityChanged
attr title "Residual energy capacity, vector"
vector 330 RplNetwork100.host[59].energyStorage powerConsumption:vector ETV
attr interpolationmode sample-hold
attr source powerConsumptionChanged
attr title "Power consumption, vector"
vector 331 RplNetwork100.host[79].wlan[0].radio receptionState:vector ETV
attr interpolationmode sample-hold
attr source receptionStateChanged
attr title "Radio reception state, vector"
vector 332 RplNetwork100.host[79].wlan[0].radio.energyConsumer powerConsumption:vector ETV
attr interpolationmode sample-hold
attr source powerConsumptionChanged
attr title "Power consumption, vector"
vector 333 RplNetwork100.host[79].energyStorage residualEnergyCapacity:vector ETV
attr interpolationmode linear
attr source residualEnergyCapacityChanged
attr title "Residual energy capacity, vector"
vector 334 RplNetwork100.host[79].energyStorage powerConsumption:vector ETV
attr interpolationmode sample-hold
attr source powerConsumptionChanged
attr title "Power consumption, vector"
vector 335 RplNetwork100.host[93].wlan[0].mac.queue packetPushed:vector(packetBytes) ETV
attr interpolationmode none
attr title "packet pushed, vector(packetBytes)"
vector 336 RplNetwork100.host[93].wlan[0].mac.queue queueLength:vector ETV
attr interpolationmode sample-hold
attr source "count(packetPushed) - count(packetPopped) - count(packetRemoved) - count(packetDropped)"
attr title "queue length, vector"
vector 337 RplNetwork100.host[93].wlan[0].radio radioMode:vector ETV
attr interpolationmode sample-hold
attr source radioModeChanged
attr title "Radio mode, vector"
vector 338 RplNetwork100.host[93].wlan[0].radio.energyConsumer powerConsumption:vector ETV
attr interpolationmode sample-hold
attr source powerConsumptionChanged
attr title "Power consumption, vector"
vector 339 RplNetwork100.host[93].energyStorage residualEnergyCapacity:vector ETV
attr interpolationmode linear
attr source residualEnergyCapacityChanged
attr title "Residual energy capacity, vector"
vector 340 RplNetwork100.host[93].energyStorage powerConsumption:vector ETV
attr interpolationmode sample-hold
attr source powerConsumptionChanged
attr title "Power consumption, vector"
vector 341 RplNetwork100.host[93].wlan[0].radio receptionState:vector ETV
attr interpolationmode sample-hold
attr source receptionStateChanged
attr title "Radio reception state, vector"
vector 342 RplNetwork100.host[93].wlan[0].radio transmissionState:vector ETV
attr interpolationmode sample-hold
attr source transmissionStateChanged
attr title "Radio transmission state, vector"
vector 343 RplNetwork100.host[93].wlan[0].mac.queue packetPopped:vector(packetBytes) ETV
attr interpolationmode none
attr title "packet popped, vector(packetBytes)"
vector 344 RplNetwork100.host[93].wlan[0].mac.queue queueingTime:vector ETV
attr interpolationmode none
attr source queueingTime(packetPopped)
attr title "queueing times, vector"
attr unit s
vector 345 RplNetwork100.host[92].wlan[0].radio receptionState:vector ETV
attr interpolationmode sample-hold
attr source receptionStateChanged
attr title "Radio reception state, vector"
[...]
1095	54125080 1584 2519506 3431486 2485.507947513834 3530.509355513834 48 0 1 24 24
1096	54126664 2904 2519508 3446998 2485.509355513834 3549.136294829071 88 2 3 220 572
1097	54129568 5808 2519508 3446998 2485.509355513834 3549.136294829071 176 0 2 176 264
1098	54135376 839 2519508 3431486 2485.509355513834 3530.509355513834 24 73 113 2672 299016
1099	54136215 960 2519508 3431486 2485.509355513834 3530.509355513834 24 0.000448 0.002368 0.034752 5.6528896e-05
1100	54137175 646 2554010 3416923 2525.129743013531 3515.129743013531 19 56 56 1064 59584
1101	54137821 646 2554011 3416924 2525.129743013531 3515.129743013531 19 64 64 1216 77824
1102	54138467 3350 2522352 3437292 2490.145780363213 3539.228140846157 98 5 113 6754 741602
1103	54141817 3906 2513905 3426539 2479.785590574736 3526.142772996703 116 5 113 4792 499916
1104	54145723 646 2554854 3417767 2525.900657521561 3515.900657521561 19 56 56 1064 59584
1105	54146369 646 2554855 3417768 2525.900657521561 3515.900657521561 19 64 64 1216 77824
1106	54147015 4677 2518772 3438339 2485.217959668393 3540.421112338747 137 5 113 9109 997457
1107	54151692 2025 2522141 3438340 2490.145236229787 3540.421112338747 59 5 113 4507 498491
1108	54153717 3350 2520037 3439398 2486.994959348144 3541.661428846435 98 5 113 6754 741602
1109	54157067 3279 2514972 3429484 2481.377298105525 3528.683714163038 97 5 113 4697 499441
1110	54160346 646 2555916 3418611 2527.612271741964 3517.612271741964 19 56 56 1064 59584
1111	54160992 646 2555917 3418612 2527.612271741964 3517.612271741964 19 64 64 1216 77824
1112	54161638 3258 2521088 3436656 2489.760521785806 3538.757958808432 97 5 113 4589 486697
1113	54164896 646 2556338 3419033 2527.638311334886 3517.638311334886 19 56 56 1064 59584
1114	54165542 646 2556339 3419034 2527.638311334886 3517.638311334886 19 64 64 1216 77824
1115	54166188 646 2557825 3420299 2530.020684259944 3520.020684259944 19 56 56 1064 59584
1116	54166834 646 2557826 3420300 2530.020684259944 3520.020684259944 19 64 64 1216 77824
1117	54167480 646 2558251 3420725 2530.511289020069 3520.511289020069 19 56 56 1064 59584
1118	54168126 646 2558252 3420726 2530.511289020069 3520.511289020069 19 64 64 1216 77824
1119	54168772 3365 2519618 3447006 2485.51335564726 3549.136294962497 99 5 113 6867 754371
1120	54172137 646 2559094 3421568 2531.847830512561 3521.847830512561 19 56 56 1064 59584
1121	54172783 646 2559095 3421569 2531.847830512561 3521.847830512561 19 64 64 1216 77824
1122	54173429 1365 2522562 3434540 2491.443816639172 3536.444776639172 39 113 113 4407 497991
1123	54174794 646 2559514 3421988 2532.389588654041 3522.389588654041 19 56 56 1064 59584
1124	54175440 646 2559515 3421989 2532.389588654041 3522.389588654041 19 64 64 1216 77824
1125	54176086 1995 2538061 3422101 2507.113312202552 3522.395636787467 57 113 113 6441 727833
1126	54178081 646 2560780 3423254 2533.606879832223 3523.606879832223 19 56 56 1064 59584
1127	54178727 646 2560781 3423255 2533.606879832223 3523.606879832223 19 64 64 1216 77824
1128	54179373 2045 2517927 3439192 2484.53496252607 3541.660884713009 59 113 113 6667 753371
1129	54181418 646 2561202 3423676 2533.854174567387 3523.854174567387 19 56 56 1064 59584
1130	54182064 646 2561203 3423677 2533.854174567387 3523.854174567387 19 64 64 1216 77824
1131	54182710 2622 2538060 3423789 2507.113312202552 3523.860222700813 76 5 113 6536 728308
1132	54185332 2030 2529147 3440033 2499.231829947047 3544.230229947047 58 113 113 6554 740602
1133	54187362 3911 2515185 3427383 2481.952397832195 3526.953037832195 115 5 113 6839 742027
1134	54191273 646 2562468 3424942 2534.508957969956 3524.508957969956 19 56 56 1064 59584
1135	54191919 646 2562469 3424943 2534.508957969956 3524.508957969956 19 64 64 1216 77824
1136	54192565 2030 2523827 3436025 2493.112149591387 3538.111189591387 58 113 113 6554 740602
1137	54194595 3920 2532325 3444255 2502.201399879219 3547.214488412923 117 5 113 4797 499941
1138	54198515 646 2562887 3425361 2534.691484738141 3524.691484738141 19 56 56 1064 59584
1139	54199161 646 2562888 3425362 2534.691484738141 3524.691484738141 19 64 64 1216 77824
1140	54199807 680 2515071 3427269 2481.948269698769 3526.948269698769 20 56 56 1120 62720
1141	54200487 680 2515072 3427270 2481.948269698769 3526.948269698769 20 64 64 1280 81920
1142	54201167 680 2516135 3428113 2483.042056141421 3528.042056141421 20 56 56 1120 62720
1143	54201847 680 2516136 3428114 2483.042056141421 3528.042056141421 20 64 64 1280 81920
1144	54202527 6067 2516459 3447004 2483.048968408273 3549.136294962497 179 5 121 9535 1029115
1145	54208594 680 2517816 3429794 2484.530834392644 3529.530834392644 20 56 56 1120 62720
1146	54209274 680 2517817 3429795 2484.530834392644 3529.530834392644 20 64 64 1280 81920
1147	54209954 680 2518237 3430215 2484.600481605157 3529.600481605157 20 56 56 1120 62720
1148	54210634 680 2518238 3430216 2484.600481605157 3529.600481605157 20 64 64 1280 81920
1149	54211314 2619 2518351 3430329 2484.605889738583 3529.605569738583 77 5 113 4597 498941
1150	54213933 680 2518659 3430637 2485.213511534967 3530.213511534967 20 56 56 1120 62720
1151	54214613 680 2518660 3430638 2485.213511534967 3530.213511534967 20 64 64 1280 81920
1152	54215293 680 2519081 3431059 2485.466661611572 3530.466661611572 20 56 56 1120 62720
1153	54215973 680 2519082 3431060 2485.466661611572 3530.466661611572 20 64 64 1280 81920
1154	54216653 680 2519503 3431481 2485.507947513834 3530.507947513834 20 56 56 1120 62720
1155	54217333 680 2519504 3431482 2485.507947513834 3530.507947513834 20 64 64 1280 81920
1156	54218013 2554 2519823 3439820 2485.513899780686 3542.52063866062 78 5 5 390 1950
1157	54220567 840 2528818 3440995 2499.072911568917 3545.241410643794 24 113 113 2712 306456
1158	54221407 1584 2528818 3440997 2499.072911568917 3545.242498643794 48 0 1 24 24
1159	54222991 4184 2515607 3441099 2482.263970374176 3545.246498643794 128 2 3 320 832
1160	54227175 8368 2515607 3441099 2482.263970374176 3545.246498643794 256 0 2 256 384
1161	54235543 840 2528820 3440997 2499.073999568917 3545.242498643794 24 113 113 2712 306456
1162	54236383 960 2528820 3440997 2499.073999568917 3545.242498643794 24 0.000128 0.002368 0.034752 6.1444096e-05
1163	54237343 680 2521190 3433168 2489.861577590928 3534.861577590928 20 56 56 1120 62720
1164	54238023 680 2521191 3433169 2489.861577590928 3534.861577590928 20 64 64 1280 81920
1165	54238703 2065 2521301 3435606 2489.866985724354 3537.994283732213 59 113 113 6667 753371
1166	54240768 2665 2520459 3435812 2488.349563017317 3537.994827865639 79 5 113 4607 498991
1167	54243433 660 2521609 3433587 2489.99722532928 3534.99722532928 20 56 56 1120 62720
1168	54244093 660 2521610 3433588 2489.99722532928 3534.99722532928 20 64 64 1280 81920
1169	54244753 2760 2521722 3439190 2490.003273462706 3541.660884713009 80 5 113 6880 766640
1170	54247513 680 2522030 3434008 2490.140468096361 3535.140468096361 20 56 56 1120 62720
1171	54248193 680 2522031 3434009 2490.140468096361 3535.140468096361 20 64 64 1280 81920
1172	54248873 2100 2520038 3436445 2486.994959348144 3538.757414675006 60 113 113 6780 766140
1173	54250973 680 2522451 3434429 2491.438728505746 3536.438728505746 20 56 56 1120 62720
1174	54251653 680 2522452 3434430 2491.438728505746 3536.438728505746 20 64 64 1280 81920
1175	54252333 4011 2520669 3436869 2488.350107150743 3539.14707593266 118 5 113 9014 996982
1176	54256344 660 2522872 3434850 2491.79909828119 3536.79909828119 20 56 56 1120 62720
1177	54257004 660 2522873 3434851 2491.79909828119 3536.79909828119 20 64 64 1280 81920
1178	54257664 680 2523294 3435492 2492.987915598787 3537.987915598787 20 56 56 1120 62720
1179	54258344 680 2523295 3435493 2492.987915598787 3537.987915598787 20 64 64 1280 81920
1180	54259024 680 2523716 3435914 2493.106101457961 3538.106101457961 20 56 56 1120 62720
1181	54259704 680 2523717 3435915 2493.106101457961 3538.106101457961 20 64 64 1280 81920
1182	54260384 769 2557833 3420307 2530.435713990591 3520.435713990591 22 113 113 2486 280918
1183	54261153 1450 2557833 3420309 2530.435713990591 3520.437761990591 44 0 1 22 22
1184	54262603 1450 2557835 3420411 2530.436481990591 3520.441761990591 44 2 3 110 286
1185	54264053 2900 2557835 3420411 2530.436481990591 3520.441761990591 88 0 2 88 132
1186	54266953 769 2557835 3420309 2530.436481990591 3520.437761990591 22 113 113 2486 280918
1187	54267722 879 2557835 3420309 2530.436481990591 3520.437761990591 22 0.000128 0.002368 0.028416 5.1150848e-05
1188	54268601 660 2524136 3436334 2493.75232654158 3538.75232654158 20 56 56 1120 62720
1189	54269261 660 2524137 3436335 2493.75232654158 3538.75232654158 20 64 64 1280 81920
1190	54269921 680 2524774 3436755 2494.140707799234 3539.140707799234 20 56 56 1120 62720
1191	54270601 680 2524775 3436756 2494.140707799234 3539.140707799234 20 64 64 1280 81920
1192	54271281 680 2525196 3437177 2494.223372712731 3539.223372712731 20 56 56 1120 62720
1193	54271961 680 2525197 3437178 2494.223372712731 3539.223372712731 20 64 64 1280 81920
1194	54272641 680 2525618 3437599 2494.435038422234 3539.435038422234 20 56 56 1120 62720
1195	54273321 680 2525619 3437600 2494.435038422234 3539.435038422234 20 64 64 1280 81920
1196	54274001 680 2526477 3438020 2495.416120071895 3540.416120071895 20 56 56 1120 62720
1197	54274681 680 2526478 3438021 2495.416120071895 3540.416120071895 20 64 64 1280 81920
1198	54275361 680 2526897 3438440 2495.646221754141 3540.646221754141 20 56 56 1120 62720
1199	54276041 680 2526898 3438441 2495.646221754141 3540.646221754141 20 64 64 1280 81920
1200	54276721 680 2527539 3439079 2496.654516579583 3541.654516579583 20 56 56 1120 62720
1201	54277401 680 2527540 3439080 2496.654516579583 3541.654516579583 20 64 64 1280 81920
1202	54278081 680 2527960 3439500 2497.515326393768 3542.515326393768 20 56 56 1120 62720
1203	54278761 680 2527961 3439501 2497.515326393768 3542.515326393768 20 64 64 1280 81920
1204	54279441 680 2529036 3439922 2499.225461813621 3544.225461813621 20 56 56 1120 62720
1205	54280121 680 2529037 3439923 2499.225461813621 3544.225461813621 20 64 64 1280 81920
1206	54280801 680 2530106 3440992 2500.241410643794 3545.241410643794 20 56 56 1120 62720
1207	54281481 680 2530107 3440993 2500.241410643794 3545.241410643794 20 64 64 1280 81920
1208	54282161 2598 2530428 3441314 2500.248322910646 3545.247042910646 77 5 113 4489 486197
1209	54284759 680 2530528 3441414 2500.550655117258 3545.550655117258 20 56 56 1120 62720
1210	54285439 680 2530529 3441415 2500.550655117258 3545.550655117258 20 64 64 1280 81920
1211	54286119 660 2531792 3442678 2502.17223866377 3547.17223866377 20 56 56 1120 62720
1212	54286779 660 2531793 3442679 2502.17223866377 3547.17223866377 20 64 64 1280 81920
1213	54287439 680 2532214 3443100 2502.196311745793 3547.196311745793 20 56 56 1120 62720
1214	54288119 680 2532215 3443101 2502.196311745793 3547.196311745793 20 64 64 1280 81920
1215	54288799 680 2533473 3444359 2502.233175472356 3547.233175472356 20 56 56 1120 62720
1216	54289479 680 2533474 3444360 2502.233175472356 3547.233175472356 20 64 64 1280 81920
1217	54290159 680 2535577 3446683 2504.129702695645 3549.129702695645 20 56 56 1120 62720
1218	54290839 680 2535578 3446684 2504.129702695645 3549.129702695645 20 64 64 1280 81920
1219	54291519 69 2751505 3242855 2748.09906795714 3313.661099938675 2 113 113 226 25538
1220	54291588 130 2751505 3242857 2748.09906795714 3313.663467938675 4 0 1 2 2
1221	54291718 130 2751507 3242959 2748.09951595714 3313.667467938675 4 2 3 10 26
1222	54291848 694 2751507 3242959 2748.09951595714 3313.667467938675 20 0 0.1 0.22 0.02004
1223	54292542 285 2751507 3242959 2748.09951595714 3313.667467938675 6 -6.6313145198773 -5.4994322479143 -36.391859887375 222.64835327202
1224	54292827 694 2751507 3242959 2748.09951595714 3313.667467938675 20 0 0.1 0.22 0.02004
1225	54293521 130 2751507 3242959 2748.09951595714 3313.667467938675 4 0 1 2 2
1226	54293651 260 2751507 3242959 2748.09951595714 3313.667467938675 8 0 2 8 12
1227	54293911 69 2751507 3242857 2748.09951595714 3313.663467938675 2 113 113 226 25538
1228	54293980 79 2751507 3242857 2748.09951595714 3313.663467938675 2 0.000448 0.002368 0.002816 5.808128e-06
1229	54294059 646 2537946 3401513 2507.107904069126 3497.107904069126 19 56 56 1064 59584
1230	54294705 646 2537947 3401514 2507.107904069126 3497.107904069126 19 64 64 1216 77824
1231	54295351 646 2539213 3402778 2508.046671729535 3498.046671729535 19 56 56 1064 59584
1232	54295997 646 2539214 3402779 2508.046671729535 3498.046671729535 19 64 64 1216 77824
1233	54296643 646 2540275 3403839 2509.202497131191 3499.202497131191 19 56 56 1064 59584
1234	54297289 646 2540276 3403840 2509.202497131191 3499.202497131191 19 64 64 1216 77824
1235	54297935 1330 2540388 3413446 2509.207265264617 3511.289995327995 38 113 113 4294 485222
1236	54299265 646 2541755 3405100 2511.013203561306 3501.013203561306 19 56 56 1064 59584
1237	54299911 646 2541756 3405101 2511.013203561306 3501.013203561306 19 64 64 1216 77824
1238	54300557 646 2542813 3406164 2514.487216859125 3504.487216859125 19 56 56 1064 59584
1239	54301203 646 2542814 3406165 2514.487216859125 3504.487216859125 19 64 64 1216 77824
1240	54301849 646 2543235 3406586 2515.000237086788 3505.000237086788 19 56 56 1064 59584
1241	54302495 646 2543236 3406587 2515.000237086788 3505.000237086788 19 64 64 1216 77824
1242	54303141 1957 2543349 3421258 2515.005325220214 3521.487280730204 57 5 113 4389 485697
1243	54305098 646 2543657 3407008 2515.197224989533 3505.197224989533 19 56 56 1064 59584
1244	54305744 646 2543658 3407009 2515.197224989533 3505.197224989533 19 64 64 1216 77824
1245	54306390 1311 2543768 3422522 2515.201673122959 3522.97403859839 38 113 113 4294 485222
1246	54307701 646 2544076 3407427 2515.210955967195 3505.210955967195 19 56 56 1064 59584
1247	54308347 646 2544077 3407428 2515.210955967195 3505.210955967195 19 64 64 1216 77824
1248	54308993 646 2545560 3408694 2516.170094609261 3506.170094609261 19 56 56 1064 59584
1249	54309639 646 2545561 3408695 2516.170094609261 3506.170094609261 19 64 64 1216 77824
1250	54310285 627 2545980 3409114 2516.58447119873 3506.58447119873 19 56 56 1064 59584
1251	54310912 627 2545981 3409115 2516.58447119873 3506.58447119873 19 64 64 1216 77824
1252	54311539 646 2547248 3410382 2517.149614430964 3507.149614430964 19 56 56 1064 59584
1253	54312185 646 2547249 3410383 2517.149614430964 3507.149614430964 19 64 64 1216 77824
1254	54312831 646 2547669 3410803 2517.352981707081 3507.352981707081 19 56 56 1064 59584
1255	54313477 646 2547670 3410804 2517.352981707081 3507.352981707081 19 64 64 1216 77824
1256	54314123 627 2548091 3411225 2517.81754638534 3507.81754638534 19 56 56 1064 59584
1257	54314750 627 2548092 3411226 2517.81754638534 3507.81754638534 19 64 64 1216 77824
1258	54315377 646 2548935 3412069 2518.541394900531 3508.541394900531 19 56 56 1064 59584
1259	54316023 646 2548936 3412070 2518.541394900531 3508.541394900531 19 64 64 1216 77824
1260	54316669 646 2549355 3412489 2518.896130546927 3508.896130546927 19 56 56 1064 59584
1261	54317315 646 2549356 3412490 2518.896130546927 3508.896130546927 19 64 64 1216 77824
1262	54317961 751 2550624 3413756 2521.68073719833 3511.68073719833 22 113 113 2486 280918
1263	54318712 1414 2550624 3413758 2521.68073719833 3511.68278519833 44 0 1 22 22
1264	54320126 1414 2550626 3413860 2521.68150519833 3511.68678519833 44 2 3 110 286
1265	54321540 2828 2550626 3413860 2521.68150519833 3511.68678519833 88 0 2 88 132
1266	54324368 751 2550626 3413758 2521.68150519833 3511.68278519833 22 113 113 2486 280918
1267	54325119 861 2550626 3413758 2521.68150519833 3511.68278519833 22 0.000128 0.002368 0.025216 4.0501248e-05
1268	54325980 627 2549777 3412911 2520.50287975464 3510.50287975464 19 56 56 1064 59584
1269	54326607 627 2549778 3412912 2520.50287975464 3510.50287975464 19 64 64 1216 77824
1270	54327234 1365 2514761 3426959 2481.376753972099 3526.375793972099 39 113 113 4407 497991
1271	54328599 646 2550199 3413333 2521.284267194569 3511.284267194569 19 56 56 1064 59584
1272	54329245 646 2550200 3413334 2521.284267194569 3511.284267194569 19 64 64 1216 77824
1273	54329891 627 2550621 3413753 2521.68073719833 3511.68073719833 19 56 56 1064 59584
1274	54330518 627 2550622 3413754 2521.68073719833 3511.68073719833 19 64 64 1216 77824
1275	54331145 646 2551684 3414597 2522.553863800131 3512.553863800131 19 56 56 1064 59584
1276	54331791 646 2551685 3414598 2522.553863800131 3512.553863800131 19 64 64 1216 77824
1277	54332437 646 2552326 3415019 2522.963983803056 3512.963983803056 19 56 56 1064 59584
1278	54333083 646 2552327 3415020 2522.963983803056 3512.963983803056 19 64 64 1216 77824
1279	54333729 646 2554432 3417345 2525.168542219326 3515.168542219326 19 56 56 1064 59584
1280	54334375 646 2554433 3417346 2525.168542219326 3515.168542219326 19 64 64 1216 77824
1281	54335021 646 2555494 3418189 2526.835155491717 3516.835155491717 19 56 56 1064 59584
1282	54335667 646 2555495 3418190 2526.835155491717 3516.835155491717 19 64 64 1216 77824
1283	54336313 646 2556762 3419455 2528.376124314964 3518.376124314964 19 56 56 1064 59584
1284	54336959 646 2556763 3419456 2528.376124314964 3518.376124314964 19 64 64 1216 77824
1285	54337605 646 2557403 3419877 2529.917853749357 3519.917853749357 19 56 56 1064 59584
1286	54338251 646 2557404 3419878 2529.917853749357 3519.917853749357 19 64 64 1216 77824
1287	54338897 646 2557830 3420304 2530.435713990591 3520.435713990591 19 56 56 1064 59584
1288	54339543 646 2557831 3420305 2530.435713990591 3520.435713990591 19 64 64 1216 77824
1289	54340189 646 2558673 3421147 2531.481872596778 3521.481872596778 19 56 56 1064 59584
1290	54340835 646 2558674 3421148 2531.481872596778 3521.481872596778 19 64 64 1216 77824
1291	54341481 646 2559934 3422408 2532.969270464964 3522.969270464964 19 56 56 1064 59584
1292	54342127 646 2559935 3422409 2532.969270464964 3522.969270464964 19 64 64 1216 77824
1293	54342773 646 2560356 3422830 2533.408638350666 3523.408638350666 19 56 56 1064 59584
1294	54343419 646 2560357 3422831 2533.408638350666 3523.408638350666 19 64 64 1216 77824
1295	54344065 646 2561624 3424098 2534.243482146412 3524.243482146412 19 56 56 1064 59584
1296	54344711 646 2561625 3424099 2534.243482146412 3524.243482146412 19 64 64 1216 77824
1297	54345357 646 2562046 3424520 2534.439913863316 3524.439913863316 19 56 56 1064 59584
1298	54346003 646 2562047 3424521 2534.439913863316 3524.439913863316 19 64 64 1216 77824
1299	54346649 646 2563308 3425782 2534.778998307884 3524.778998307884 19 56 56 1064 59584
1300	54347295 646 2563309 3425783 2534.778998307884 3524.778998307884 19 64 64 1216 77824
1301	54347941 680 2514226 3426424 2481.138324863277 3526.138324863277 20 56 56 1120 62720
1302	54348621 680 2514227 3426425 2481.138324863277 3526.138324863277 20 64 64 1280 81920
1303	54349301 680 2514650 3426848 2481.370385838673 3526.370385838673 20 56 56 1120 62720
1304	54349981 680 2514651 3426849 2481.370385838673 3526.370385838673 20 64 64 1280 81920
1305	54350661 660 2515493 3427691 2482.25856224075 3527.25856224075 20 56 56 1120 62720
1306	54351321 660 2515494 3427692 2482.25856224075 3527.25856224075 20 64 64 1280 81920
1307	54351981 680 2517394 3429372 2483.679586029612 3528.679586029612 20 56 56 1120 62720
1308	54352661 680 2517395 3429373 2483.679586029612 3528.679586029612 20 64 64 1280 81920
1309	54353341 680 2519925 3431903 2486.990191214718 3531.990191214718 20 56 56 1120 62720
1310	54354021 680 2519926 3431904 2486.990191214718 3531.990191214718 20 64 64 1280 81920
1311	54354701 680 2520347 3432325 2488.343514883891 3533.343514883891 20 56 56 1120 62720
1312	54355381 680 2520348 3432326 2488.343514883891 3533.343514883891 20 64 64 1280 81920
1313	54356061 680 2520769 3432747 2489.754889518954 3534.754889518954 20 56 56 1120 62720
1314	54356741 680 2520770 3432748 2489.754889518954 3534.754889518954 20 64 64 1280 81920

